
-------------------------------------------------------------------------
|    ___ _   _ ___                                                      |
|   / __| | | |_  )   Release 7.5.0 "Blackbird"                         |
|   \__ \ |_| |/ /                                                      |
|   |___/\___//___|   Suite (Computational Fluid Dynamics Code)         |
|                                                                       |
-------------------------------------------------------------------------
| SU2 Project Website: https://su2code.github.io                        |
|                                                                       |
| The SU2 Project is maintained by the SU2 Foundation                   |
| (http://su2foundation.org)                                            |
-------------------------------------------------------------------------
| Copyright 2012-2022, SU2 Contributors                                 |
|                                                                       |
| SU2 is free software; you can redistribute it and/or                  |
| modify it under the terms of the GNU Lesser General Public            |
| License as published by the Free Software Foundation; either          |
| version 2.1 of the License, or (at your option) any later version.    |
|                                                                       |
| SU2 is distributed in the hope that it will be useful,                |
| but WITHOUT ANY WARRANTY; without even the implied warranty of        |
| MERCHANTABILITY or FITNESS FOR A PARTICULAR PURPOSE. See the GNU      |
| Lesser General Public License for more details.                       |
|                                                                       |
| You should have received a copy of the GNU Lesser General Public      |
| License along with SU2. If not, see <http://www.gnu.org/licenses/>.   |
-------------------------------------------------------------------------

Parsing config file for zone 0

----------------- Physical Case Definition ( Zone 0 ) -------------------
Compressible RANS equations.
Turbulence model: Menter's k-omega SST-2003m with no production modification.
Transition model: Langtry and Menter's 4 equation model (2009)
Correlation Functions: Menter and Langtry (2009)
Hybrid RANS/LES: No Hybrid RANS/LES
Mach number: 0.8.
Angle of attack (AoA): 2.5 deg, and angle of sideslip (AoS): 0 deg.
Reynolds number: 6.5e+06. Reference length 1.
No restart solution, use the values at infinity (freestream).
Dimensional simulation.
The reference area is 1 m^2.
The semi-span will be computed using the max y(3D) value.
The reference length is 1 m.
Surface(s) where the force coefficients are evaluated and 
their reference origin for moment computation: 
   - AIRFOIL_UP (0, 0, 0).
   - AIRFOIL_LOW (0, 0, 0) m.
Surface(s) plotted in the output file: AIRFOIL_UP, AIRFOIL_LOW.
Input mesh file name: airfoil_deform.su2

--------------- Space Numerical Integration ( Zone 0 ) ------------------
AUSM solver for the flow inviscid terms.
Standard Roe without low-dissipation function.
Second order integration in space, with slope limiter.
Venkatakrishnan slope-limiting method, with constant: 0.05.
The reference element size is: 1. 
Scalar upwind solver for the turbulence model.
Second order integration in space, with slope limiter.
Venkatakrishnan slope-limiting method, with constant: 0.05.
The reference element size is: 1. 
Average of gradients with correction (viscous flow terms).
Average of gradients with correction (viscous turbulence terms).
Gradient for upwind reconstruction: inverse-distance weighted Least-Squares.
Gradient for viscous and source terms: inverse-distance weighted Least-Squares.

--------------- Time Numerical Integration  ( Zone 0 ) ------------------
Local time stepping (steady state simulation).
Euler implicit method for the flow equations.
FGMRES is used for solving the linear system.
Using a ILU(0) preconditioning.
Convergence criteria of the linear solver: 1e-06.
Max number of linear iterations: 10.
CFL adaptation. Factor down: 0.5, factor up: 1.1,
                lower limit: 0.01, upper limit: 1000,
                acceptable linear residual: 1e-06.
Courant-Friedrichs-Lewy number:       10
Euler implicit time integration for the turbulence model.

------------------ Convergence Criteria  ( Zone 0 ) ---------------------
Maximum number of solver subiterations: 99999.
Begin convergence monitoring at iteration 10.
Residual minimum value: 1e-14.
Cauchy series min. value: 1e-06.
Number of Cauchy elements: 100.
Begin windowed time average at iteration 0.

-------------------- Output Information ( Zone 0 ) ----------------------
File writing frequency: 
+------------------------------------+
|                     File| Frequency|
+------------------------------------+
|                  RESTART|       100|
|            TECPLOT_ASCII|       100|
|              SURFACE_CSV|       100|
+------------------------------------+
Writing the convergence history file every 1 inner iterations.
Writing the screen convergence history every 1 inner iterations.
The tabular file format is CSV (.csv).
Convergence history file name: history.
Forces breakdown file name: forces_breakdown.dat.
Surface file name: surface_flow.
Volume file name: volume_flow.
Restart file name: restart_flow.dat.

------------- Config File Boundary Information ( Zone 0 ) ---------------
+-----------------------------------------------------------------------+
|                        Marker Type|                        Marker Name|
+-----------------------------------------------------------------------+
|                          Far-field|                           FARFIELD|
+-----------------------------------------------------------------------+
|                  Internal boundary|                              INNER|
+-----------------------------------------------------------------------+
|                     Heat flux wall|                         AIRFOIL_UP|
|                                   |                        AIRFOIL_LOW|
+-----------------------------------------------------------------------+

-------------------- Output Preprocessing ( Zone 0 ) --------------------

WARNING: SURFACE_PRESSURE_DROP can only be computed for at least 2 surfaces (outlet, inlet, ...)

Screen output fields: INNER_ITER, AVG_CFL, RMS_DENSITY, RMS_ENERGY, RMS_TKE, LINSOL_ITER, LINSOL_RESIDUAL, LINSOL_ITER_TURB, LINSOL_RESIDUAL_TURB, LINSOL_ITER_TRANS, LINSOL_RESIDUAL_TRANS, DRAG, LIFT
History output group(s): INNER_ITER, RMS_RES, AERO_COEFF
Convergence field(s): LIFT, DRAG
Warning: No (valid) fields chosen for time convergence monitoring. Time convergence monitoring inactive.
Volume output fields: COORDINATES, SOLUTION, PRIMITIVE

------------------- Geometry Preprocessing ( Zone 0 ) -------------------
Two dimensional problem.
72650 grid points before partitioning.
72000 volume elements before partitioning.
3 surface markers.
230 boundary elements in index 0 (Marker = AIRFOIL_UP).
230 boundary elements in index 1 (Marker = AIRFOIL_LOW).
840 boundary elements in index 2 (Marker = FARFIELD).
Executing the partitioning functions.
Building the graph adjacency structure.
Calling ParMETIS... graph partitioning complete (6741 edge cuts).
Distributing ParMETIS coloring.
Rebalancing vertices.
Rebalancing volume element connectivity.
Rebalancing markers and surface elements.
86460 vertices including ghost points. 
78816 interior elements including halo cells. 
78816 quadrilaterals.
Establishing MPI communication patterns.
Setting point connectivity.
Renumbering points (Reverse Cuthill McKee Ordering).
Recomputing point connectivity.
Setting element connectivity.
Checking the numerical grid orientation.
All volume elements are correctly orientend.
There has been a re-orientation of 677 LINE surface elements.
Identifying edges and vertices.
Setting the control volume structure.
Area of the computational grid: 84.2447.
Searching for the closest normal neighbors to the surfaces.
Storing a mapping from global to local point index.
Compute the surface curvature.
Max K: 264.309. Mean K: 4.36835. Standard deviation K: 19.3021.
Checking for periodicity.
Computing mesh quality statistics for the dual control volumes.
+--------------------------------------------------------------+
|           Mesh Quality Metric|        Minimum|        Maximum|
+--------------------------------------------------------------+
|    Orthogonality Angle (deg.)|        28.2056|        89.9722|
|     CV Face Area Aspect Ratio|        1.00194|        6729.78|
|           CV Sub-Volume Ratio|        1.00017|         43.756|
+--------------------------------------------------------------+
Finding max control volume width.
Communicating number of neighbors.
Wetted area = 2.03288 m.
Area projection in the x-plane = 0.118726 m, y-plane = 1 m.
Max. coordinate in the x-direction = 1 m, y-direction = 0.051253 m.
Min. coordinate in the x-direction = 0 m, y-direction = -0.066977 m.
Computing wall distances.

-------------------- Solver Preprocessing ( Zone 0 ) --------------------
Viscous flow: Computing pressure using the ideal gas law
based on the free-stream temperature and a density computed
from the Reynolds number.
Force coefficients computed using free-stream values.

-- Models:
+------------------------------------------------------------------------------+
|          Viscosity Model|        Conductivity Model|              Fluid Model|
+------------------------------------------------------------------------------+
|               SUTHERLAND|          CONSTANT_PRANDTL|             STANDARD_AIR|
+------------------------------------------------------------------------------+
-- Fluid properties:
+------------------------------------------------------------------------------+
|                  Name|    Dim. value|    Ref. value|      Unit|Non-dim. value|
+------------------------------------------------------------------------------+
|        Ref. Viscosity|     1.716e-05|             1|   N.s/m^2|     1.716e-05|
|      Sutherland Temp.|        273.15|             1|         K|        273.15|
|     Sutherland Const.|         110.4|             1|         K|         110.4|
+------------------------------------------------------------------------------+
|        Prandtl (Lam.)|             -|             -|         -|          0.72|
|       Prandtl (Turb.)|             -|             -|         -|           0.9|
+------------------------------------------------------------------------------+
|          Gas Constant|       287.058|             1|  N.m/kg.K|       287.058|
|      Spec. Heat Ratio|             -|             -|         -|           1.4|
+------------------------------------------------------------------------------+
-- Initial and free-stream conditions:
+------------------------------------------------------------------------------+
|                  Name|    Dim. value|    Ref. value|      Unit|Non-dim. value|
+------------------------------------------------------------------------------+
|       Static Pressure|        101325|             1|        Pa|        101325|
|               Density|       1.29225|             1|    kg/m^3|       1.29225|
|           Temperature|        273.15|             1|         K|        273.15|
|          Total Energy|        231416|             1|   m^2/s^2|        231416|
|            Velocity-X|       264.805|             1|       m/s|       264.805|
|            Velocity-Y|       11.5616|             1|       m/s|       11.5616|
|    Velocity Magnitude|       265.057|             1|       m/s|       265.057|
+------------------------------------------------------------------------------+
|             Viscosity|     1.716e-05|             1|   N.s/m^2|     1.716e-05|
|          Conductivity|             -|             1|   W/m^2.K|             -|
|     Turb. Kin. Energy|       263.457|             1|   m^2/s^2|       263.457|
|     Spec. Dissipation|   1.98399e+06|             1|       1/s|   1.98399e+06|
|         Intermittency|             -|             -|         -|             1|
|     Moment. Thick. Re|             -|             -|         -|       122.031|
+------------------------------------------------------------------------------+
|           Mach Number|             -|             -|         -|           0.8|
|       Reynolds Number|             -|             -|         -|   1.99603e+07|
+------------------------------------------------------------------------------+
Initialize Jacobian structure (Navier-Stokes). MG level: 0.
Initialize Jacobian structure (SST model).
Initialize Jacobian structure (LM transition model).

------------------- Numerics Preprocessing ( Zone 0 ) -------------------

----------------- Integration Preprocessing ( Zone 0 ) ------------------

------------------- Iteration Preprocessing ( Zone 0 ) ------------------
Euler/Navier-Stokes/RANS fluid iteration.

------------------------------ Begin Solver -----------------------------

Simulation Run using the Single-zone Driver
+------------------------------------------------------------------------------------------------------------------------------------------------------------------------+
|  Inner_Iter|     Avg CFL|    rms[Rho]|   rms[RhoE]|      rms[k]|Linear_Solve|   LinSolRes|LinSolIterTu|LinSolResTur|LinSolIterTr|LinSolResTra|          CD|          CL|
+------------------------------------------------------------------------------------------------------------------------------------------------------------------------+
|           0|  1.0998e+01|   -1.763479|    3.727638|    5.208951|           8|   -6.051941|           3|   -6.179731|           7|   -6.479668|    0.183764|    0.136421|
|           1|  5.4991e+00|   -2.007018|    3.485367|    4.616038|          10|   -5.781180|           4|   -6.408904|           3|   -6.186842|    0.218759|    0.202112|
|           2|  6.0481e+00|   -2.160912|    3.336628|    4.030185|           9|   -6.770485|           5|   -6.789400|           3|   -6.195409|    0.238434|    0.215238|
|           3|  6.6527e+00|   -2.229850|    3.268515|    3.487675|           9|   -6.336283|           6|   -7.861871|           3|   -6.293600|    0.244680|    0.215837|
|           4|  7.3175e+00|   -2.312121|    3.181373|    2.981173|          10|   -6.450336|           6|   -7.145718|           3|   -6.376325|    0.242580|    0.213888|
|           5|  8.0484e+00|   -2.358661|    3.134422|    2.523541|          10|   -6.059738|           6|   -6.646904|           3|   -6.505226|    0.237783|    0.212340|
|           6|  4.0242e+00|   -2.392849|    3.100970|    2.123092|          10|   -5.749807|           6|   -6.285579|           3|   -6.253974|    0.233342|    0.211934|
|           7|  4.4266e+00|   -2.426268|    3.066332|    1.779131|           8|   -6.398684|           6|   -6.833289|           3|   -6.154634|    0.231826|    0.212125|
|           8|  4.8693e+00|   -2.438016|    3.053485|    1.595717|           8|   -6.134482|           6|   -6.619888|           3|   -6.116710|    0.230518|    0.212313|
|           9|  5.3561e+00|   -2.447733|    3.042826|    1.430682|           9|   -6.572852|           6|   -6.420975|           3|   -6.069206|    0.229359|    0.212450|
|          10|  5.8913e+00|   -2.453884|    3.035966|    1.282480|           9|   -6.320729|           6|   -6.240949|           3|   -6.008851|    0.228295|    0.212654|
|          11|  6.4797e+00|   -2.457254|    3.032449|    1.148986|           9|   -6.181640|           6|   -6.072450|           4|   -7.236699|    0.227282|    0.213067|
|          12|  7.1267e+00|   -2.459566|    3.030663|    1.033238|          10|   -6.366749|           7|   -6.725813|           4|   -7.176130|    0.226266|    0.213677|
|          13|  7.8379e+00|   -2.462431|    3.028731|    0.933553|          10|   -6.036938|           7|   -6.474002|           4|   -7.110231|    0.225182|    0.214321|
|          14|  3.9190e+00|   -2.466697|    3.025430|    0.852842|          10|   -5.722419|           7|   -6.232353|           4|   -7.067942|    0.223980|    0.214855|
|          15|  4.3109e+00|   -2.472083|    3.020894|    0.792996|           8|   -6.465558|           6|   -6.516914|           4|   -7.041079|    0.223444|    0.215162|
|          16|  4.7419e+00|   -2.473658|    3.018348|    0.721503|           8|   -6.141344|           6|   -6.372443|           4|   -6.943135|    0.222813|    0.215404|
|          17|  5.2158e+00|   -2.472999|    3.018075|    0.695647|           9|   -6.474883|           6|   -6.255198|           4|   -6.968700|    0.222103|    0.215591|
|          18|  5.7368e+00|   -2.469360|    3.021258|    0.692818|           9|   -6.126390|           6|   -6.147323|           4|   -6.987518|    0.221337|    0.215740|
|          19|  6.3097e+00|   -2.464051|    3.027083|    0.688291|          10|   -6.399936|           6|   -6.033915|           4|   -6.994962|    0.220540|    0.215867|
|          20|  6.9396e+00|   -2.459278|    3.032961|    0.663876|          10|   -6.062604|           7|   -6.636688|           4|   -6.979976|    0.219731|    0.215981|
|          21|  3.4698e+00|   -2.456390|    3.036754|    0.671166|          10|   -5.740799|           7|   -6.429233|           4|   -6.960805|    0.218918|    0.216095|
|          22|  3.8168e+00|   -2.454901|    3.038689|    0.657373|           8|   -6.245414|           6|   -6.832814|           4|   -6.982792|    0.218557|    0.216178|
|          23|  4.1985e+00|   -2.453640|    3.038552|    0.574333|           9|   -6.654394|           6|   -6.657879|           4|   -6.943328|    0.218163|    0.216246|
|          24|  4.6181e+00|   -2.449797|    3.040989|    0.608927|           9|   -6.390970|           6|   -6.520450|           4|   -6.982201|    0.217734|    0.216296|
|          25|  5.0795e+00|   -2.442529|    3.047469|    0.616673|           9|   -6.140588|           6|   -6.387422|           4|   -7.036220|    0.217261|    0.216334|
|          26|  5.5869e+00|   -2.433327|    3.056930|    0.602115|          10|   -6.538046|           6|   -6.260126|           4|   -7.039273|    0.216732|    0.216365|
|          27|  6.1449e+00|   -2.424776|    3.066109|    0.627769|          10|   -6.285124|           6|   -6.129691|           4|   -7.025722|    0.216128|    0.216388|
|          28|  6.7585e+00|   -2.417920|    3.073511|    0.613707|          10|   -6.031699|           7|   -6.755930|           4|   -7.022653|    0.215441|    0.216402|
|          29|  3.3792e+00|   -2.412568|    3.078604|    0.623472|          10|   -5.782527|           7|   -6.563803|           4|   -6.989286|    0.214668|    0.216404|
|          30|  3.7172e+00|   -2.407371|    3.083345|    0.640069|           8|   -6.182223|           6|   -6.986430|           4|   -7.039950|    0.214304|    0.216415|
|          31|  4.0889e+00|   -2.403937|    3.084911|    0.543737|           9|   -6.649357|           6|   -6.800874|           4|   -7.010494|    0.213895|    0.216409|
|          32|  4.4976e+00|   -2.397910|    3.089421|    0.582107|           9|   -6.427774|           6|   -6.664618|           4|   -7.005138|    0.213443|    0.216387|
|          33|  4.9471e+00|   -2.388989|    3.097302|    0.589949|           9|   -6.208520|           6|   -6.531920|           4|   -7.076924|    0.212950|    0.216356|
|          34|  5.4414e+00|   -2.378335|    3.107733|    0.591995|          10|   -6.706962|           6|   -6.414686|           4|   -7.088814|    0.212416|    0.216323|
|          35|  5.9851e+00|   -2.368097|    3.118009|    0.602929|          10|   -6.476491|           6|   -6.299024|           4|   -7.121738|    0.211833|    0.216294|
|          36|  6.5830e+00|   -2.359659|    3.126138|    0.602767|          10|   -6.248934|           6|   -6.185940|           4|   -7.156688|    0.211187|    0.216269|
|          37|  7.2405e+00|   -2.352195|    3.132972|    0.616143|          10|   -6.017189|           6|   -6.076184|           4|   -7.049193|    0.210454|    0.216248|
|          38|  3.6202e+00|   -2.345231|    3.139248|    0.617466|          10|   -5.778870|           7|   -6.611087|           4|   -6.535908|    0.209613|    0.216227|
|          39|  3.9823e+00|   -2.338744|    3.144697|    0.616584|           8|   -6.106871|           6|   -7.091632|           4|   -6.557486|    0.209205|    0.216225|
|          40|  4.3805e+00|   -2.334304|    3.147564|    0.547650|           9|   -6.529949|           6|   -6.913541|           4|   -6.472779|    0.208737|    0.216208|
|          41|  4.8184e+00|   -2.328431|    3.151992|    0.575647|           9|   -6.372232|           6|   -6.786305|           4|   -6.596500|    0.208204|    0.216180|
|          42|  5.3001e+00|   -2.319994|    3.159398|    0.589521|           9|   -6.247842|           6|   -6.656410|           4|   -6.785195|    0.207600|    0.216144|
|          43|  5.8298e+00|   -2.310122|    3.168768|    0.590224|           9|   -6.033498|           6|   -6.535612|           3|   -6.047797|    0.206922|    0.216109|
|          44|  6.4124e+00|   -2.300662|    3.177848|    0.600988|          10|   -6.390559|           6|   -6.412224|           3|   -6.084133|    0.206160|    0.216080|
|          45|  7.0531e+00|   -2.292534|    3.185398|    0.600815|          10|   -6.129685|           6|   -6.290362|           3|   -6.095837|    0.205303|    0.216061|
|          46|  3.5266e+00|   -2.284862|    3.192404|    0.604499|          10|   -5.878347|           6|   -6.167734|           3|   -6.079663|    0.204334|    0.216058|
|          47|  3.8792e+00|   -2.278123|    3.198455|    0.620022|           8|   -6.262387|           6|   -7.305739|           3|   -6.154696|    0.203861|    0.216061|
|          48|  4.2672e+00|   -2.274602|    3.200646|    0.523543|           8|   -6.029896|           6|   -7.109814|           3|   -6.148550|    0.203326|    0.216061|
|          49|  4.6938e+00|   -2.270289|    3.203706|    0.566596|           9|   -6.513647|           6|   -6.979298|           3|   -6.086916|    0.202721|    0.216059|
|          50|  5.1631e+00|   -2.263824|    3.209266|    0.593717|           9|   -6.288564|           6|   -6.842510|           3|   -6.107831|    0.202033|    0.216061|
|          51|  5.6792e+00|   -2.255993|    3.216618|    0.594488|           9|   -6.066750|           6|   -6.715545|           3|   -6.092473|    0.201249|    0.216074|
|          52|  6.2470e+00|   -2.248183|    3.224106|    0.588547|          10|   -6.473248|           6|   -6.581141|           3|   -6.024182|    0.200353|    0.216106|
|          53|  6.8714e+00|   -2.241217|    3.230536|    0.599190|          10|   -6.222372|           6|   -6.423941|           4|   -7.030164|    0.199331|    0.216162|
|          54|  6.8714e+00|   -2.234927|    3.236146|    0.614482|          10|   -5.962781|           6|   -6.273679|           4|   -6.770753|    0.198165|    0.216247|
|          55|  3.4357e+00|   -2.229159|    3.241220|    0.603463|          10|   -5.916592|           6|   -6.284240|           4|   -6.727226|    0.196970|    0.216356|
|          56|  3.7793e+00|   -2.224009|    3.245622|    0.616506|           8|   -6.252018|           6|   -7.457990|           4|   -6.919148|    0.196387|    0.216418|
|          57|  4.1572e+00|   -2.221654|    3.246875|    0.527273|           9|   -6.730518|           6|   -7.247443|           4|   -6.766196|    0.195731|    0.216487|
|          58|  4.5729e+00|   -2.219146|    3.248229|    0.557043|           9|   -6.447963|           6|   -7.103651|           4|   -6.683116|    0.194996|    0.216567|
|          59|  5.0302e+00|   -2.215205|    3.251331|    0.582747|           9|   -6.171415|           6|   -6.946649|           4|   -6.740121|    0.194173|    0.216666|
|          60|  5.5331e+00|   -2.209888|    3.256119|    0.574468|          10|   -6.763450|           6|   -6.804338|           4|   -6.793646|    0.193251|    0.216792|
|          61|  6.0863e+00|   -2.203531|    3.262171|    0.592720|          10|   -6.491356|           6|   -6.662001|           4|   -6.816506|    0.192217|    0.216956|
|          62|  6.6948e+00|   -2.197527|    3.267800|    0.604470|          10|   -6.235120|           6|   -6.516974|           4|   -6.909419|    0.191053|    0.217166|
|          63|  6.6948e+00|   -2.192218|    3.272451|    0.608322|          10|   -5.979212|           6|   -6.370729|           4|   -7.031828|    0.189740|    0.217430|
|          64|  6.6948e+00|   -2.187357|    3.276553|    0.618031|          10|   -5.988176|           6|   -6.387653|           4|   -7.161232|    0.188399|    0.217725|
|          65|  6.6948e+00|   -2.182998|    3.280167|    0.625548|          10|   -5.957668|           6|   -6.401176|           4|   -7.225550|    0.187029|    0.218045|
|          66|  3.3474e+00|   -2.179251|    3.283044|    0.611357|          10|   -5.907187|           6|   -6.415535|           4|   -7.259277|    0.185634|    0.218387|
|          67|  3.6822e+00|   -2.175428|    3.286075|    0.603133|           9|   -6.916476|           6|   -7.633247|           3|   -6.039773|    0.184953|    0.218564|
|          68|  4.0504e+00|   -2.173897|    3.286840|    0.526658|           9|   -6.597386|           6|   -7.430228|           4|   -7.267680|    0.184191|    0.218760|
|          69|  4.4554e+00|   -2.172622|    3.287190|    0.555997|           9|   -6.282133|           6|   -7.287691|           4|   -7.229226|    0.183341|    0.218979|
|          70|  4.9010e+00|   -2.170575|    3.288452|    0.572088|          10|   -6.863989|           6|   -7.133428|           4|   -7.256593|    0.182394|    0.219226|
|          71|  5.3910e+00|   -2.167267|    3.291176|    0.572438|          10|   -6.545249|           6|   -6.993243|           4|   -7.242656|    0.181338|    0.219505|
|          72|  5.9301e+00|   -2.162756|    3.295448|    0.601204|          10|   -6.250302|           6|   -6.852155|           4|   -7.232897|    0.180161|    0.219819|
|          73|  5.9301e+00|   -2.157681|    3.300143|    0.597905|          10|   -5.976310|           6|   -6.716702|           4|   -7.253165|    0.178849|    0.220169|
|          74|  5.9301e+00|   -2.152813|    3.304637|    0.608157|          10|   -5.979854|           6|   -6.744678|           4|   -7.270128|    0.177525|    0.220520|
|          75|  5.9301e+00|   -2.148853|    3.307845|    0.602613|          10|   -5.972580|           6|   -6.766928|           4|   -7.287567|    0.176189|    0.220867|
|          76|  5.9301e+00|   -2.145745|    3.310273|    0.600818|          10|   -5.949895|           6|   -6.792772|           4|   -7.160691|    0.174844|    0.221206|
|          77|  2.9651e+00|   -2.142733|    3.312443|    0.603515|          10|   -5.901246|           6|   -6.818735|           4|   -7.187330|    0.173490|    0.221534|
|          78|  3.2616e+00|   -2.139949|    3.314647|    0.608947|           9|   -6.975508|           5|   -6.235198|           4|   -7.157661|    0.172832|    0.221699|
|          79|  3.5877e+00|   -2.139086|    3.314817|    0.495587|           9|   -6.665286|           5|   -6.058993|           4|   -7.212943|    0.172103|    0.221874|
|          80|  3.9465e+00|   -2.138275|    3.314947|    0.525677|           9|   -6.365930|           6|   -7.732289|           4|   -7.113571|    0.171296|    0.222059|
|          81|  4.3412e+00|   -2.137196|    3.315497|    0.559354|           9|   -6.077251|           6|   -7.568200|           4|   -7.071367|    0.170403|    0.222254|
|          82|  4.7753e+00|   -2.135742|    3.316445|    0.577433|          10|   -6.849314|           6|   -7.423868|           4|   -7.063796|    0.169415|    0.222456|
|          83|  5.2528e+00|   -2.133021|    3.318794|    0.566008|          10|   -6.537303|           6|   -7.275680|           4|   -6.996443|    0.168323|    0.222662|
|          84|  5.7781e+00|   -2.129284|    3.322452|    0.566482|          10|   -6.243155|           6|   -7.125557|           4|   -6.848066|    0.167116|    0.222866|
|          85|  5.7781e+00|   -2.125784|    3.325738|    0.602811|          10|   -5.965630|           6|   -6.975855|           4|   -6.674064|    0.165786|    0.223058|
|          86|  5.7781e+00|   -2.121986|    3.329089|    0.604961|          10|   -5.984800|           6|   -6.995429|           4|   -6.637461|    0.164458|    0.223217|
|          87|  6.3559e+00|   -2.119076|    3.331469|    0.594985|          10|   -6.008116|           6|   -7.007292|           4|   -6.707442|    0.163134|    0.223339|
|          88|  3.1780e+00|   -2.117140|    3.332615|    0.597202|          10|   -5.758830|           6|   -6.840039|           4|   -6.716523|    0.161679|    0.223425|
|          89|  3.4957e+00|   -2.114690|    3.334342|    0.614218|           9|   -6.814697|           5|   -6.214211|           4|   -6.963516|    0.160972|    0.223467|
|          90|  3.8453e+00|   -2.114078|    3.334355|    0.516017|           9|   -6.544315|           5|   -6.031762|           4|   -6.958071|    0.160193|    0.223495|
|          91|  4.2299e+00|   -2.114086|    3.333634|    0.535361|           9|   -6.282500|           6|   -7.779134|           4|   -6.968058|    0.159337|    0.223505|
|          92|  4.6528e+00|   -2.113816|    3.333207|    0.556376|           9|   -6.041859|           6|   -7.605478|           4|   -7.014934|    0.158394|    0.223493|
|          93|  5.1181e+00|   -2.112705|    3.333803|    0.578551|          10|   -6.651001|           6|   -7.446062|           4|   -6.973055|    0.157358|    0.223450|
|          94|  5.6299e+00|   -2.110832|    3.335384|    0.583589|          10|   -6.328369|           6|   -7.276581|           4|   -6.908389|    0.156218|    0.223368|
|          95|  6.1929e+00|   -2.108494|    3.337460|    0.584489|          10|   -6.024399|           6|   -7.105322|           4|   -6.879074|    0.154965|    0.223233|
|          96|  3.0965e+00|   -2.105728|    3.339839|    0.596525|          10|   -5.766608|           6|   -6.926524|           4|   -6.881415|    0.153592|    0.223030|
|          97|  3.4061e+00|   -2.102708|    3.342424|    0.597405|           9|   -6.865944|           5|   -6.242040|           4|   -7.049674|    0.152924|    0.222928|
|          98|  3.7467e+00|   -2.102000|    3.342552|    0.523391|           9|   -6.599475|           5|   -6.060007|           4|   -6.947984|    0.152191|    0.222794|
|          99|  4.1214e+00|   -2.101973|    3.341802|    0.550937|           9|   -6.319752|           6|   -7.898660|           4|   -6.915014|    0.151385|    0.222624|
|         100|  4.5335e+00|   -2.101988|    3.340941|    0.574737|           9|   -6.050966|           6|   -7.718957|           4|   -6.951229|    0.150502|    0.222409|
+-----------------------------------------------------------------------+
|        File Writing Summary       |              Filename             |
+-----------------------------------------------------------------------+
|SU2 binary restart                 |restart_flow.dat                   |
|Tecplot ASCII                      |volume_flow.dat                    |
|CSV file                           |surface_flow.csv                   |
+-----------------------------------------------------------------------+
+------------------------------------------------------------------------------------------------------------------------------------------------------------------------+
|  Inner_Iter|     Avg CFL|    rms[Rho]|   rms[RhoE]|      rms[k]|Linear_Solve|   LinSolRes|LinSolIterTu|LinSolResTur|LinSolIterTr|LinSolResTra|          CD|          CL|
+------------------------------------------------------------------------------------------------------------------------------------------------------------------------+
|         101|  4.9869e+00|   -2.101374|    3.340819|    0.564614|          10|   -6.705603|           6|   -7.553496|           4|   -6.955298|    0.149535|    0.222143|
|         102|  5.4856e+00|   -2.100046|    3.341602|    0.580910|          10|   -6.455069|           6|   -7.377910|           4|   -6.972947|    0.148479|    0.221814|
|         103|  6.0341e+00|   -2.098169|    3.343121|    0.583412|          10|   -6.189651|           6|   -7.201056|           4|   -6.866210|    0.147328|    0.221411|
|         104|  6.0341e+00|   -2.095874|    3.345064|    0.584612|          10|   -5.945623|           6|   -7.022604|           4|   -6.848016|    0.146077|    0.220919|
|         105|  6.0341e+00|   -2.093224|    3.347279|    0.600597|          10|   -5.962070|           6|   -7.038304|           4|   -6.872832|    0.144845|    0.220383|
|         106|  6.0341e+00|   -2.091115|    3.348845|    0.594898|          10|   -5.990451|           6|   -7.047759|           4|   -6.860808|    0.143633|    0.219804|
|         107|  6.6375e+00|   -2.089949|    3.349248|    0.596716|          10|   -6.007579|           6|   -7.057896|           4|   -6.908134|    0.142441|    0.219183|
|         108|  3.3188e+00|   -2.088964|    3.349383|    0.609299|          10|   -5.781106|           6|   -6.866714|           4|   -6.936252|    0.141152|    0.218451|
|         109|  3.6506e+00|   -2.087419|    3.350231|    0.613868|           9|   -6.884317|           5|   -6.197559|           4|   -7.094555|    0.140525|    0.218087|
|         110|  1.8253e+00|   -2.086992|    3.350114|    0.518895|           9|   -6.647139|           5|   -6.029916|           4|   -7.021661|    0.139842|    0.217670|
|         111|  9.1266e-01|   -2.087009|    3.349492|    0.562490|           7|   -6.556976|           4|   -6.455514|           4|   -7.098205|    0.139509|    0.217466|
|         112|  4.5633e-01|   -2.087095|    3.349016|    0.475470|           6|   -6.880846|           3|   -6.334185|           4|   -7.163439|    0.139346|    0.217366|
|         113|  2.2817e-01|   -2.087149|    3.348741|    0.413519|           4|   -6.003952|           3|   -7.164010|           4|   -7.082398|    0.139267|    0.217317|
|         114|  1.1408e-01|   -2.087198|    3.348573|    0.343523|           4|   -7.108815|           2|   -6.278963|           4|   -7.010245|    0.139227|    0.217294|
|         115|  5.7041e-02|   -2.087230|    3.348477|    0.299101|           3|   -6.311859|           2|   -6.865181|           4|   -6.876240|    0.139208|    0.217282|
|         116|  2.8521e-02|   -2.087247|    3.348428|    0.281162|           3|   -7.196317|           2|   -7.460328|           4|   -6.737439|    0.139198|    0.217276|
|         117|  1.4260e-02|   -2.087256|    3.348402|    0.270115|           3|   -8.089913|           2|   -8.052575|           4|   -6.593918|    0.139193|    0.217273|
|         118|  1.0000e-02|   -2.087260|    3.348390|    0.264001|           2|   -6.276773|           2|   -8.651483|           3|   -6.022692|    0.139191|    0.217272|
|         119|  1.0000e-02|   -2.087263|    3.348384|    0.260866|           2|   -6.586638|           2|   -8.961077|           4|   -6.420443|    0.139189|    0.217270|
|         120|  1.0000e-02|   -2.087264|    3.348379|    0.258675|           2|   -6.586668|           2|   -8.960324|           4|   -6.374573|    0.139187|    0.217269|
|         121|  1.0000e-02|   -2.087266|    3.348375|    0.256492|           2|   -6.586697|           2|   -8.959503|           4|   -6.352629|    0.139185|    0.217268|
|         122|  1.0000e-02|   -2.087267|    3.348370|    0.254323|           2|   -6.586727|           2|   -8.958672|           4|   -6.357013|    0.139183|    0.217267|
|         123|  1.0000e-02|   -2.087269|    3.348366|    0.252222|           2|   -6.586756|           2|   -8.957827|           4|   -6.375032|    0.139182|    0.217266|
|         124|  1.0000e-02|   -2.087270|    3.348361|    0.250171|           2|   -6.586786|           2|   -8.956980|           3|   -6.013458|    0.139180|    0.217265|
|         125|  1.0000e-02|   -2.087272|    3.348357|    0.248236|           2|   -6.586815|           2|   -8.956132|           3|   -6.040770|    0.139178|    0.217264|
|         126|  1.0000e-02|   -2.087274|    3.348352|    0.246340|           2|   -6.586844|           2|   -8.955271|           3|   -6.067276|    0.139176|    0.217263|
|         127|  1.0000e-02|   -2.087275|    3.348348|    0.244467|           2|   -6.586873|           2|   -8.954403|           3|   -6.084551|    0.139174|    0.217262|
|         128|  1.0000e-02|   -2.087277|    3.348343|    0.242495|           2|   -6.586903|           2|   -8.953536|           3|   -6.102839|    0.139172|    0.217261|
|         129|  1.1000e-02|   -2.087279|    3.348339|    0.240296|           2|   -6.586932|           2|   -8.952669|           3|   -6.132075|    0.139170|    0.217260|
|         130|  1.2100e-02|   -2.087280|    3.348334|    0.238307|           2|   -6.504378|           2|   -8.869105|           3|   -6.163829|    0.139168|    0.217259|
|         131|  1.3310e-02|   -2.087282|    3.348329|    0.236254|           2|   -6.421847|           2|   -8.785444|           3|   -6.188072|    0.139166|    0.217258|
|         132|  1.4641e-02|   -2.087284|    3.348324|    0.234105|           2|   -6.339341|           2|   -8.701698|           3|   -6.207936|    0.139163|    0.217256|
|         133|  1.6105e-02|   -2.087286|    3.348317|    0.231819|           2|   -6.256862|           2|   -8.617856|           3|   -6.236088|    0.139161|    0.217255|
|         134|  1.7716e-02|   -2.087289|    3.348311|    0.229329|           2|   -6.174414|           2|   -8.533917|           3|   -6.264459|    0.139157|    0.217253|
|         135|  1.9487e-02|   -2.087291|    3.348303|    0.226600|           2|   -6.091998|           2|   -8.449871|           3|   -6.284236|    0.139154|    0.217251|
|         136|  2.1436e-02|   -2.087294|    3.348295|    0.223601|           2|   -6.009619|           2|   -8.365718|           3|   -6.293408|    0.139150|    0.217249|
|         137|  2.3579e-02|   -2.087298|    3.348286|    0.220463|           3|   -8.464861|           2|   -8.281441|           3|   -6.309904|    0.139146|    0.217247|
|         138|  2.5937e-02|   -2.087302|    3.348276|    0.217040|           3|   -8.341575|           2|   -8.197044|           3|   -6.310252|    0.139142|    0.217244|
|         139|  2.8531e-02|   -2.087306|    3.348265|    0.213313|           3|   -8.218377|           2|   -8.112520|           3|   -6.306030|    0.139137|    0.217241|
|         140|  3.1384e-02|   -2.087310|    3.348253|    0.209103|           3|   -8.095276|           2|   -8.027867|           3|   -6.305781|    0.139132|    0.217238|
|         141|  3.4523e-02|   -2.087315|    3.348240|    0.204464|           3|   -7.972283|           2|   -7.943071|           3|   -6.304073|    0.139126|    0.217235|
|         142|  3.7975e-02|   -2.087321|    3.348226|    0.198562|           3|   -7.849409|           2|   -7.858132|           3|   -6.288369|    0.139119|    0.217231|
|         143|  4.1772e-02|   -2.087327|    3.348209|    0.192250|           3|   -7.726664|           2|   -7.773032|           3|   -6.278172|    0.139112|    0.217227|
|         144|  4.5950e-02|   -2.087333|    3.348192|    0.185702|           3|   -7.604059|           2|   -7.687776|           3|   -6.254297|    0.139104|    0.217223|
|         145|  5.0545e-02|   -2.087341|    3.348172|    0.178786|           3|   -7.481610|           2|   -7.602363|           3|   -6.248265|    0.139095|    0.217218|
|         146|  5.5599e-02|   -2.087349|    3.348151|    0.170919|           3|   -7.359334|           2|   -7.516806|           3|   -6.219742|    0.139086|    0.217213|
|         147|  6.1159e-02|   -2.087358|    3.348127|    0.162703|           3|   -7.237247|           2|   -7.431113|           3|   -6.199188|    0.139075|    0.217207|
|         148|  6.7275e-02|   -2.087368|    3.348101|    0.154813|           3|   -7.115363|           2|   -7.345272|           3|   -6.163380|    0.139064|    0.217200|
|         149|  7.4002e-02|   -2.087379|    3.348073|    0.147650|           3|   -6.993702|           2|   -7.259297|           3|   -6.148137|    0.139051|    0.217193|
|         150|  8.1403e-02|   -2.087391|    3.348042|    0.139715|           3|   -6.872284|           2|   -7.173175|           3|   -6.118356|    0.139037|    0.217185|
|         151|  8.9543e-02|   -2.087404|    3.348008|    0.130846|           3|   -6.751130|           2|   -7.087042|           3|   -6.099106|    0.139022|    0.217176|
|         152|  9.8497e-02|   -2.087420|    3.347970|    0.121085|           3|   -6.630264|           2|   -7.002717|           3|   -6.068366|    0.139005|    0.217167|
|         153|  1.0835e-01|   -2.087437|    3.347927|    0.112006|           3|   -6.509711|           2|   -6.914324|           3|   -6.049475|    0.138986|    0.217156|
|         154|  1.1918e-01|   -2.087455|    3.347881|    0.101710|           3|   -6.389503|           2|   -6.827846|           3|   -6.014781|    0.138966|    0.217145|
|         155|  1.3110e-01|   -2.087476|    3.347830|    0.091284|           3|   -6.269668|           2|   -6.741261|           3|   -6.001107|    0.138943|    0.217132|
|         156|  1.4421e-01|   -2.087498|    3.347774|    0.080506|           3|   -6.150236|           2|   -6.654599|           4|   -6.867560|    0.138919|    0.217118|
|         157|  1.5863e-01|   -2.087524|    3.347712|    0.068918|           3|   -6.031244|           2|   -6.567868|           4|   -6.879874|    0.138891|    0.217102|
|         158|  1.7449e-01|   -2.087556|    3.347640|    0.056887|           4|   -7.741011|           2|   -6.481065|           4|   -6.881006|    0.138862|    0.217085|
|         159|  1.9194e-01|   -2.087591|    3.347562|    0.043884|           4|   -7.586416|           2|   -6.394221|           4|   -6.892532|    0.138829|    0.217066|
|         160|  2.1114e-01|   -2.087629|    3.347476|    0.032238|           4|   -7.432697|           2|   -6.307268|           4|   -6.895759|    0.138793|    0.217046|
|         161|  2.3225e-01|   -2.087679|    3.347371|    0.014428|           4|   -7.279913|           2|   -6.220259|           4|   -6.907250|    0.138753|    0.217023|
|         162|  2.5548e-01|   -2.087727|    3.347265|   -0.000970|           4|   -7.128161|           2|   -6.133211|           4|   -6.915694|    0.138710|    0.216997|
|         163|  2.8102e-01|   -2.087777|    3.347152|   -0.019985|           4|   -6.977510|           2|   -6.045936|           4|   -6.919032|    0.138662|    0.216970|
|         164|  3.0913e-01|   -2.087836|    3.347024|   -0.037022|           4|   -6.828021|           3|   -7.604065|           4|   -6.916918|    0.138610|    0.216939|
|         165|  3.4004e-01|   -2.087906|    3.346877|   -0.057547|           4|   -6.679765|           3|   -7.476695|           4|   -6.938558|    0.138553|    0.216905|
|         166|  3.7404e-01|   -2.087981|    3.346719|   -0.076285|           4|   -6.532854|           3|   -7.349475|           4|   -6.932260|    0.138490|    0.216868|
|         167|  4.1145e-01|   -2.088058|    3.346554|   -0.080688|           4|   -6.387431|           3|   -7.222171|           4|   -6.925141|    0.138421|    0.216826|
|         168|  4.5259e-01|   -2.088140|    3.346378|   -0.098897|           4|   -6.243320|           3|   -7.095395|           4|   -6.902390|    0.138346|    0.216780|
|         169|  4.9785e-01|   -2.088213|    3.346211|   -0.101604|           4|   -6.100599|           3|   -6.967780|           4|   -6.888673|    0.138263|    0.216730|
|         170|  5.4764e-01|   -2.088288|    3.346036|   -0.106515|           5|   -6.971388|           3|   -6.844570|           4|   -6.859987|    0.138172|    0.216674|
|         171|  6.0240e-01|   -2.088353|    3.345865|   -0.065727|           5|   -6.816068|           3|   -6.719842|           4|   -6.834680|    0.138073|    0.216612|
|         172|  6.6264e-01|   -2.088405|    3.345707|    0.026039|           5|   -6.661780|           3|   -6.617266|           4|   -6.814145|    0.137964|    0.216543|
|         173|  7.2890e-01|   -2.088435|    3.345572|    0.124636|           5|   -6.512085|           3|   -6.504288|           4|   -6.835538|    0.137845|    0.216467|
|         174|  8.0180e-01|   -2.088453|    3.345451|    0.151876|           5|   -6.366361|           3|   -6.397260|           4|   -6.903013|    0.137714|    0.216383|
|         175|  8.8197e-01|   -2.088466|    3.345323|    0.198166|           5|   -6.223803|           3|   -6.305127|           4|   -6.937866|    0.137571|    0.216289|
|         176|  9.7017e-01|   -2.088372|    3.345322|    0.241775|           5|   -6.083636|           3|   -6.210773|           4|   -6.982470|    0.137414|    0.216185|
|         177|  1.0672e+00|   -2.088156|    3.345474|    0.287788|           6|   -6.911743|           3|   -6.128086|           4|   -7.002168|    0.137241|    0.216069|
|         178|  1.1739e+00|   -2.087899|    3.345668|    0.304770|           6|   -6.765735|           3|   -6.016532|           4|   -7.041679|    0.137052|    0.215940|
|         179|  1.2913e+00|   -2.087551|    3.345985|    0.298608|           6|   -6.625213|           4|   -6.949332|           4|   -7.055025|    0.136844|    0.215796|
|         180|  1.4204e+00|   -2.087123|    3.346387|    0.354718|           6|   -6.487656|           4|   -6.819548|           4|   -7.027063|    0.136616|    0.215637|
|         181|  1.5625e+00|   -2.086496|    3.347039|    0.396137|           6|   -6.333364|           4|   -6.694609|           4|   -7.063005|    0.136366|    0.215459|
|         182|  1.7187e+00|   -2.085696|    3.347880|    0.394578|           6|   -6.180359|           4|   -6.575784|           4|   -7.072554|    0.136092|    0.215260|
|         183|  1.8906e+00|   -2.084751|    3.348890|    0.407531|           6|   -6.022596|           4|   -6.458331|           4|   -7.064446|    0.135792|    0.215039|
|         184|  2.0797e+00|   -2.083731|    3.349991|    0.455197|           7|   -6.531663|           4|   -6.336085|           4|   -7.074745|    0.135464|    0.214791|
|         185|  2.2876e+00|   -2.082551|    3.351263|    0.485818|           7|   -6.413182|           4|   -6.212264|           4|   -7.117546|    0.135104|    0.214514|
|         186|  2.5164e+00|   -2.081140|    3.352748|    0.475376|           7|   -6.310515|           4|   -6.094989|           4|   -7.130846|    0.134709|    0.214204|
|         187|  2.7680e+00|   -2.079742|    3.354150|    0.488457|           7|   -6.118670|           5|   -6.587851|           4|   -7.106090|    0.134277|    0.213856|
|         188|  3.0448e+00|   -2.078250|    3.355615|    0.506668|           8|   -6.679532|           5|   -6.447232|           4|   -7.102759|    0.133805|    0.213465|
|         189|  3.3493e+00|   -2.076572|    3.357225|    0.521315|           8|   -6.416361|           5|   -6.301850|           4|   -7.093929|    0.133289|    0.213025|
|         190|  3.6842e+00|   -2.074962|    3.358711|    0.536136|           8|   -6.205638|           5|   -6.164163|           4|   -7.077689|    0.132728|    0.212531|
|         191|  4.0527e+00|   -2.073216|    3.360303|    0.533505|           8|   -6.086513|           5|   -6.026878|           4|   -7.043113|    0.132120|    0.211974|
|         192|  4.4579e+00|   -2.071607|    3.361694|    0.546482|           9|   -6.526792|           6|   -7.901962|           4|   -7.002786|    0.131465|    0.211348|
|         193|  4.9037e+00|   -2.070101|    3.362902|    0.544215|           9|   -6.413351|           6|   -7.729002|           4|   -6.976583|    0.130762|    0.210643|
|         194|  5.3941e+00|   -2.068350|    3.364373|    0.566727|           9|   -6.150826|           6|   -7.549875|           4|   -6.932599|    0.130010|    0.209850|
|         195|  5.9335e+00|   -2.066557|    3.365818|    0.579139|          10|   -6.518313|           6|   -7.366804|           4|   -6.931540|    0.129209|    0.208958|
|         196|  6.5268e+00|   -2.064475|    3.367646|    0.577532|          10|   -6.273935|           6|   -7.179465|           4|   -6.933949|    0.128360|    0.207954|
|         197|  7.1795e+00|   -2.062392|    3.369538|    0.596382|          10|   -6.059911|           6|   -6.985408|           4|   -6.942064|    0.127461|    0.206824|
|         198|  3.5898e+00|   -2.061079|    3.370514|    0.609766|          10|   -5.831759|           6|   -6.792097|           4|   -6.942455|    0.126514|    0.205553|
|         199|  3.9487e+00|   -2.059884|    3.371262|    0.624236|           9|   -6.924371|           5|   -6.165699|           4|   -7.078739|    0.126056|    0.204931|
|         200|  4.3436e+00|   -2.059576|    3.371069|    0.514472|           9|   -6.693764|           5|   -6.007625|           4|   -6.997449|    0.125565|    0.204237|
+-----------------------------------------------------------------------+
|        File Writing Summary       |              Filename             |
+-----------------------------------------------------------------------+
|SU2 binary restart                 |restart_flow.dat                   |
|Tecplot ASCII                      |volume_flow.dat                    |
|CSV file                           |surface_flow.csv                   |
+-----------------------------------------------------------------------+
+------------------------------------------------------------------------------------------------------------------------------------------------------------------------+
|  Inner_Iter|     Avg CFL|    rms[Rho]|   rms[RhoE]|      rms[k]|Linear_Solve|   LinSolRes|LinSolIterTu|LinSolResTur|LinSolIterTr|LinSolResTra|          CD|          CL|
+------------------------------------------------------------------------------------------------------------------------------------------------------------------------+
|         201|  4.7780e+00|   -2.059674|    3.370413|    0.562240|           9|   -6.474976|           6|   -7.863302|           4|   -6.767036|    0.125040|    0.203461|
|         202|  5.2558e+00|   -2.059785|    3.369830|    0.581461|           9|   -6.233656|           6|   -7.663838|           4|   -6.887996|    0.124479|    0.202597|
|         203|  5.7813e+00|   -2.059890|    3.369324|    0.584038|          10|   -6.652871|           6|   -7.477838|           4|   -6.894943|    0.123885|    0.201634|
|         204|  6.3595e+00|   -2.059501|    3.369466|    0.583352|          10|   -6.439809|           6|   -7.289848|           4|   -6.913357|    0.123258|    0.200564|
|         205|  6.9954e+00|   -2.058681|    3.370011|    0.598615|          10|   -6.243157|           6|   -7.099905|           4|   -6.892295|    0.122601|    0.199377|
|         206|  6.9954e+00|   -2.057361|    3.371040|    0.610641|          10|   -5.941860|           6|   -6.909103|           4|   -6.893554|    0.121920|    0.198063|
|         207|  3.4977e+00|   -2.056175|    3.371786|    0.621954|          10|   -5.812329|           6|   -6.927616|           4|   -6.898086|    0.121279|    0.196748|
|         208|  3.8475e+00|   -2.055652|    3.371761|    0.614622|           8|   -6.216335|           5|   -6.289477|           3|   -6.040542|    0.120971|    0.196108|
|         209|  4.2322e+00|   -2.055689|    3.371184|    0.528723|           8|   -6.061266|           5|   -6.127431|           4|   -6.881024|    0.120644|    0.195402|
|         210|  4.6555e+00|   -2.056022|    3.370220|    0.566551|           9|   -6.419569|           6|   -7.991623|           4|   -6.835958|    0.120298|    0.194621|
|         211|  5.1210e+00|   -2.056274|    3.369356|    0.574506|           9|   -6.154796|           6|   -7.792972|           4|   -6.894625|    0.119934|    0.193761|
|         212|  5.6331e+00|   -2.056288|    3.368824|    0.585837|          10|   -6.717052|           6|   -7.603348|           4|   -6.883996|    0.119552|    0.192817|
|         213|  6.1964e+00|   -2.055986|    3.368714|    0.598285|          10|   -6.435670|           6|   -7.408139|           4|   -6.885392|    0.119154|    0.191783|
|         214|  6.8161e+00|   -2.055579|    3.368757|    0.603036|          10|   -6.139229|           6|   -7.210288|           4|   -6.870715|    0.118742|    0.190655|
|         215|  3.4080e+00|   -2.055023|    3.368918|    0.614941|          10|   -5.851367|           6|   -7.011206|           4|   -6.828158|    0.118316|    0.189426|
|         216|  3.7488e+00|   -2.054444|    3.368938|    0.607371|           8|   -6.488588|           5|   -6.350172|           4|   -6.944472|    0.118111|    0.188832|
|         217|  4.1237e+00|   -2.053992|    3.369011|    0.536882|           8|   -6.226397|           5|   -6.182346|           4|   -6.803003|    0.117893|    0.188177|
|         218|  4.5361e+00|   -2.053912|    3.368599|    0.560212|           9|   -6.542414|           5|   -6.046081|           4|   -6.757447|    0.117662|    0.187459|
|         219|  4.9897e+00|   -2.053828|    3.368234|    0.583133|           9|   -6.313712|           6|   -7.883598|           4|   -6.753578|    0.117418|    0.186673|
|         220|  5.4887e+00|   -2.053922|    3.367694|    0.589421|           9|   -6.082192|           6|   -7.690768|           4|   -6.700814|    0.117162|    0.185815|
|         221|  6.0375e+00|   -2.053784|    3.367478|    0.577901|          10|   -6.523712|           6|   -7.491610|           4|   -6.692338|    0.116893|    0.184882|
|         222|  6.6413e+00|   -2.053502|    3.367376|    0.602055|          10|   -6.274075|           6|   -7.291840|           4|   -6.681268|    0.116615|    0.183869|
|         223|  7.3054e+00|   -2.052774|    3.367759|    0.601136|          10|   -6.009997|           6|   -7.090601|           4|   -6.715803|    0.116328|    0.182774|
|         224|  3.6527e+00|   -2.051838|    3.368275|    0.607807|          10|   -5.744462|           6|   -6.891996|           4|   -6.686901|    0.116036|    0.181597|
|         225|  4.0180e+00|   -2.051155|    3.368486|    0.620699|           9|   -6.824344|           5|   -6.282564|           4|   -6.866554|    0.115895|    0.181027|
|         226|  4.4198e+00|   -2.051043|    3.368177|    0.528457|           9|   -6.571604|           5|   -6.122481|           4|   -6.760085|    0.115747|    0.180406|
|         227|  4.8617e+00|   -2.051311|    3.367406|    0.566262|           9|   -6.321253|           6|   -7.980931|           4|   -6.667555|    0.115594|    0.179733|
|         228|  5.3479e+00|   -2.051539|    3.366718|    0.575496|           9|   -6.074548|           6|   -7.772577|           4|   -6.713731|    0.115436|    0.179005|
|         229|  5.8827e+00|   -2.051573|    3.366265|    0.595114|          10|   -6.596438|           6|   -7.575232|           4|   -6.669507|    0.115276|    0.178223|
|         230|  6.4710e+00|   -2.051357|    3.366147|    0.598725|          10|   -6.326711|           6|   -7.373496|           4|   -6.701451|    0.115116|    0.177387|
|         231|  7.1181e+00|   -2.050774|    3.366530|    0.602746|          10|   -6.057068|           6|   -7.173217|           4|   -6.702203|    0.114961|    0.176499|
|         232|  3.5590e+00|   -2.050370|    3.366693|    0.606036|          10|   -5.786002|           6|   -6.974538|           4|   -6.711199|    0.114813|    0.175563|
|         233|  3.9149e+00|   -2.049979|    3.366735|    0.609740|           8|   -6.098796|           5|   -6.355298|           4|   -6.838876|    0.114743|    0.175114|
|         234|  4.3064e+00|   -2.049982|    3.366330|    0.523526|           9|   -6.491233|           5|   -6.190433|           4|   -6.751330|    0.114673|    0.174632|
|         235|  4.7371e+00|   -2.050185|    3.365655|    0.553492|           9|   -6.227961|           5|   -6.057345|           4|   -6.744709|    0.114604|    0.174116|
|         236|  5.2108e+00|   -2.050276|    3.365163|    0.582706|          10|   -6.771775|           6|   -7.838754|           4|   -6.807767|    0.114536|    0.173566|
|         237|  5.7319e+00|   -2.050157|    3.364956|    0.577432|          10|   -6.514216|           6|   -7.644247|           4|   -6.844465|    0.114470|    0.172984|
|         238|  6.3051e+00|   -2.049902|    3.364967|    0.596323|          10|   -6.261404|           6|   -7.443861|           4|   -6.853838|    0.114407|    0.172372|
|         239|  6.9356e+00|   -2.049831|    3.364865|    0.593143|          10|   -6.008624|           6|   -7.244423|           4|   -6.876622|    0.114347|    0.171733|
|         240|  3.4678e+00|   -2.049576|    3.364977|    0.604521|          10|   -5.753780|           6|   -7.045651|           4|   -6.831337|    0.114288|    0.171073|
|         241|  3.8146e+00|   -2.049116|    3.365260|    0.622069|           8|   -6.097132|           5|   -6.417117|           4|   -6.973910|    0.114257|    0.170756|
|         242|  4.1960e+00|   -2.048908|    3.365168|    0.493576|           9|   -6.405446|           5|   -6.246235|           4|   -6.901038|    0.114226|    0.170419|
|         243|  4.6156e+00|   -2.048775|    3.364932|    0.561314|           9|   -6.134338|           5|   -6.113457|           4|   -6.859840|    0.114193|    0.170063|
|         244|  5.0772e+00|   -2.048773|    3.364527|    0.581148|          10|   -6.730221|           6|   -7.887267|           4|   -6.977773|    0.114157|    0.169688|
|         245|  5.5849e+00|   -2.048793|    3.364119|    0.566606|          10|   -6.487547|           6|   -7.697038|           4|   -6.962171|    0.114119|    0.169298|
|         246|  6.1434e+00|   -2.048818|    3.363729|    0.589604|          10|   -6.245968|           6|   -7.500109|           4|   -6.947466|    0.114077|    0.168895|
|         247|  6.7577e+00|   -2.048803|    3.363398|    0.611623|          10|   -6.004933|           6|   -7.303204|           4|   -6.954712|    0.114031|    0.168483|
|         248|  3.3789e+00|   -2.048634|    3.363254|    0.614356|          10|   -5.761254|           6|   -7.106347|           4|   -6.930261|    0.113980|    0.168065|
|         249|  3.7168e+00|   -2.048217|    3.363387|    0.615249|           8|   -6.097909|           5|   -6.469424|           4|   -7.070678|    0.113953|    0.167866|
|         250|  4.0884e+00|   -2.047806|    3.363536|    0.515618|           9|   -6.459474|           5|   -6.294049|           4|   -6.995666|    0.113923|    0.167658|
|         251|  4.4973e+00|   -2.047411|    3.363624|    0.559998|           9|   -6.188258|           5|   -6.162659|           4|   -6.923816|    0.113891|    0.167442|
|         252|  4.9470e+00|   -2.047340|    3.363290|    0.568503|          10|   -6.764174|           5|   -6.021569|           4|   -6.997514|    0.113855|    0.167219|
|         253|  2.4735e+00|   -2.047273|    3.362922|    0.566587|          10|   -6.528283|           6|   -7.748136|           4|   -7.023913|    0.113817|    0.166994|
|         254|  1.2367e+00|   -2.047292|    3.362382|    0.591556|           8|   -6.841503|           4|   -6.336803|           4|   -7.245396|    0.113797|    0.166885|
|         255|  6.1837e-01|   -2.047379|    3.361940|    0.499693|           6|   -6.469485|           3|   -6.262508|           4|   -7.306272|    0.113786|    0.166831|
|         256|  3.0919e-01|   -2.047450|    3.361653|    0.432929|           5|   -6.271125|           3|   -7.046071|           4|   -7.224986|    0.113780|    0.166804|
|         257|  1.5459e-01|   -2.047491|    3.361497|    0.374276|           4|   -6.515474|           2|   -6.258430|           4|   -7.107367|    0.113777|    0.166790|
|         258|  7.7297e-02|   -2.047512|    3.361419|    0.323384|           4|   -7.631978|           2|   -6.891338|           4|   -6.926257|    0.113776|    0.166784|
|         259|  3.8648e-02|   -2.047523|    3.361378|    0.301607|           3|   -6.683885|           2|   -7.492241|           4|   -6.762545|    0.113775|    0.166780|
|         260|  1.9324e-02|   -2.047528|    3.361358|    0.285033|           3|   -7.575059|           2|   -8.093070|           4|   -6.651072|    0.113775|    0.166778|
|         261|  1.0000e-02|   -2.047531|    3.361349|    0.276440|           3|   -8.471882|           2|   -8.689965|           4|   -6.656561|    0.113775|    0.166778|
|         262|  1.0000e-02|   -2.047532|    3.361344|    0.271843|           2|   -6.493435|           2|   -9.259864|           4|   -6.681758|    0.113775|    0.166777|
|         263|  1.0000e-02|   -2.047533|    3.361341|    0.269399|           2|   -6.493414|           2|   -9.258976|           4|   -6.703130|    0.113774|    0.166777|
|         264|  1.0000e-02|   -2.047534|    3.361339|    0.266966|           2|   -6.493394|           2|   -9.257998|           4|   -6.714816|    0.113774|    0.166776|
|         265|  1.0000e-02|   -2.047534|    3.361336|    0.264561|           2|   -6.493373|           2|   -9.256952|           4|   -6.716218|    0.113774|    0.166776|
|         266|  1.0000e-02|   -2.047535|    3.361334|    0.262110|           2|   -6.493352|           2|   -9.255860|           3|   -6.064775|    0.113774|    0.166775|
|         267|  1.0000e-02|   -2.047535|    3.361331|    0.259655|           2|   -6.493330|           2|   -9.254766|           3|   -6.147771|    0.113774|    0.166775|
|         268|  1.0000e-02|   -2.047536|    3.361329|    0.257181|           2|   -6.493309|           2|   -9.253879|           3|   -6.208217|    0.113774|    0.166774|
|         269|  1.0000e-02|   -2.047537|    3.361326|    0.254869|           2|   -6.493287|           2|   -9.252610|           3|   -6.240730|    0.113774|    0.166774|
|         270|  1.0000e-02|   -2.047537|    3.361324|    0.252597|           2|   -6.493265|           2|   -9.251530|           3|   -6.249482|    0.113774|    0.166774|
|         271|  1.0000e-02|   -2.047538|    3.361321|    0.250364|           2|   -6.493244|           2|   -9.250446|           3|   -6.254075|    0.113774|    0.166773|
|         272|  1.0000e-02|   -2.047539|    3.361319|    0.247880|           2|   -6.493222|           2|   -9.249357|           3|   -6.273106|    0.113774|    0.166773|
|         273|  1.0000e-02|   -2.047539|    3.361316|    0.245159|           2|   -6.493200|           2|   -9.248258|           3|   -6.283504|    0.113773|    0.166772|
|         274|  1.0000e-02|   -2.047540|    3.361314|    0.242619|           2|   -6.493178|           2|   -9.246743|           3|   -6.287823|    0.113773|    0.166772|
|         275|  1.0000e-02|   -2.047540|    3.361311|    0.240142|           2|   -6.493156|           2|   -9.245684|           3|   -6.293990|    0.113773|    0.166771|
|         276|  1.0000e-02|   -2.047541|    3.361309|    0.237688|           2|   -6.493134|           2|   -9.244589|           3|   -6.309876|    0.113773|    0.166771|
|         277|  1.0000e-02|   -2.047542|    3.361306|    0.234929|           2|   -6.493111|           2|   -9.243516|           3|   -6.323897|    0.113773|    0.166770|
|         278|  1.0000e-02|   -2.047542|    3.361304|    0.232391|           2|   -6.493089|           2|   -9.242441|           3|   -6.346344|    0.113773|    0.166770|
|         279|  1.0000e-02|   -2.047543|    3.361302|    0.230004|           2|   -6.493067|           2|   -9.241367|           3|   -6.362439|    0.113773|    0.166770|
|         280|  1.0000e-02|   -2.047543|    3.361299|    0.227686|           2|   -6.493045|           2|   -9.240290|           3|   -6.381236|    0.113773|    0.166769|
|         281|  1.0000e-02|   -2.047544|    3.361297|    0.225425|           2|   -6.493022|           2|   -9.239205|           3|   -6.410431|    0.113773|    0.166769|
|         282|  1.0000e-02|   -2.047544|    3.361294|    0.223198|           2|   -6.493000|           2|   -9.238124|           3|   -6.429719|    0.113773|    0.166768|
|         283|  1.0000e-02|   -2.047545|    3.361292|    0.220982|           2|   -6.492977|           2|   -9.237054|           3|   -6.435560|    0.113772|    0.166768|
|         284|  1.0000e-02|   -2.047546|    3.361290|    0.218823|           2|   -6.492955|           2|   -9.235991|           3|   -6.444799|    0.113772|    0.166767|
|         285|  1.1000e-02|   -2.047546|    3.361287|    0.216653|           2|   -6.492932|           2|   -9.234937|           3|   -6.437161|    0.113772|    0.166767|
|         286|  1.2100e-02|   -2.047547|    3.361285|    0.214518|           2|   -6.410320|           2|   -9.151186|           3|   -6.424842|    0.113772|    0.166766|
|         287|  1.3310e-02|   -2.047547|    3.361282|    0.212256|           2|   -6.327725|           2|   -9.067335|           3|   -6.411773|    0.113772|    0.166766|
|         288|  1.4641e-02|   -2.047548|    3.361279|    0.209803|           2|   -6.245148|           2|   -8.983388|           3|   -6.404402|    0.113772|    0.166765|
|         289|  1.6105e-02|   -2.047549|    3.361276|    0.207129|           2|   -6.162592|           2|   -8.899334|           3|   -6.396268|    0.113772|    0.166765|
|         290|  1.7716e-02|   -2.047550|    3.361272|    0.204261|           2|   -6.080058|           2|   -8.815169|           3|   -6.395775|    0.113772|    0.166764|
|         291|  1.9487e-02|   -2.047551|    3.361268|    0.201211|           3|   -8.585591|           2|   -8.730886|           3|   -6.387411|    0.113771|    0.166763|
|         292|  2.1436e-02|   -2.047552|    3.361264|    0.197973|           3|   -8.462058|           2|   -8.646476|           3|   -6.386213|    0.113771|    0.166762|
|         293|  2.3579e-02|   -2.047553|    3.361259|    0.194474|           3|   -8.338586|           2|   -8.561925|           3|   -6.386921|    0.113771|    0.166761|
|         294|  2.5937e-02|   -2.047554|    3.361254|    0.190949|           3|   -8.215181|           2|   -8.477225|           3|   -6.393073|    0.113771|    0.166760|
|         295|  2.8531e-02|   -2.047555|    3.361249|    0.187387|           3|   -8.091850|           2|   -8.392369|           3|   -6.389207|    0.113771|    0.166759|
|         296|  3.1384e-02|   -2.047557|    3.361243|    0.183542|           3|   -7.968597|           2|   -8.307349|           3|   -6.400112|    0.113770|    0.166758|
|         297|  3.4523e-02|   -2.047558|    3.361236|    0.179350|           3|   -7.845431|           2|   -8.222136|           3|   -6.397003|    0.113770|    0.166757|
|         298|  3.7975e-02|   -2.047560|    3.361229|    0.174517|           3|   -7.722359|           2|   -8.136731|           3|   -6.392887|    0.113770|    0.166755|
|         299|  4.1772e-02|   -2.047562|    3.361221|    0.169013|           3|   -7.599389|           2|   -8.051121|           3|   -6.376944|    0.113769|    0.166753|
|         300|  4.5950e-02|   -2.047563|    3.361212|    0.163529|           3|   -7.476530|           2|   -7.965310|           3|   -6.372258|    0.113769|    0.166752|
+-----------------------------------------------------------------------+
|        File Writing Summary       |              Filename             |
+-----------------------------------------------------------------------+
|SU2 binary restart                 |restart_flow.dat                   |
|Tecplot ASCII                      |volume_flow.dat                    |
|CSV file                           |surface_flow.csv                   |
+-----------------------------------------------------------------------+
+------------------------------------------------------------------------------------------------------------------------------------------------------------------------+
|  Inner_Iter|     Avg CFL|    rms[Rho]|   rms[RhoE]|      rms[k]|Linear_Solve|   LinSolRes|LinSolIterTu|LinSolResTur|LinSolIterTr|LinSolResTra|          CD|          CL|
+------------------------------------------------------------------------------------------------------------------------------------------------------------------------+
|         301|  5.0545e-02|   -2.047565|    3.361203|    0.157773|           3|   -7.353792|           2|   -7.879288|           3|   -6.357943|    0.113768|    0.166750|
|         302|  5.5599e-02|   -2.047567|    3.361193|    0.151633|           3|   -7.231183|           2|   -7.793050|           3|   -6.354264|    0.113768|    0.166747|
|         303|  6.1159e-02|   -2.047569|    3.361182|    0.144973|           3|   -7.108714|           2|   -7.706595|           3|   -6.321810|    0.113767|    0.166745|
|         304|  6.7275e-02|   -2.047572|    3.361170|    0.137882|           3|   -6.986397|           2|   -7.619914|           3|   -6.298259|    0.113767|    0.166742|
|         305|  7.4002e-02|   -2.047574|    3.361157|    0.129815|           3|   -6.864240|           2|   -7.532996|           3|   -6.256465|    0.113766|    0.166739|
|         306|  8.1403e-02|   -2.047576|    3.361143|    0.121033|           3|   -6.742265|           2|   -7.445820|           3|   -6.240275|    0.113765|    0.166736|
|         307|  8.9543e-02|   -2.047579|    3.361128|    0.111796|           3|   -6.620475|           2|   -7.358382|           3|   -6.208833|    0.113765|    0.166733|
|         308|  9.8497e-02|   -2.047581|    3.361111|    0.102120|           3|   -6.498880|           2|   -7.270710|           3|   -6.185650|    0.113764|    0.166729|
|         309|  1.0835e-01|   -2.047584|    3.361093|    0.092195|           3|   -6.377495|           2|   -7.182819|           3|   -6.148768|    0.113763|    0.166725|
|         310|  1.1918e-01|   -2.047587|    3.361074|    0.082739|           3|   -6.256336|           2|   -7.094696|           3|   -6.125545|    0.113762|    0.166720|
|         311|  1.3110e-01|   -2.047591|    3.361051|    0.073283|           3|   -6.135413|           2|   -7.006343|           3|   -6.087899|    0.113761|    0.166715|
|         312|  1.4421e-01|   -2.047595|    3.361026|    0.062233|           3|   -6.014753|           2|   -6.917742|           3|   -6.063950|    0.113759|    0.166709|
|         313|  1.5863e-01|   -2.047599|    3.361000|    0.050354|           4|   -7.744048|           2|   -6.828891|           3|   -6.026832|    0.113758|    0.166703|
|         314|  1.7449e-01|   -2.047603|    3.360971|    0.037714|           4|   -7.586768|           2|   -6.739831|           3|   -6.003268|    0.113757|    0.166697|
|         315|  1.9194e-01|   -2.047609|    3.360938|    0.024914|           4|   -7.430234|           2|   -6.650600|           4|   -7.207204|    0.113755|    0.166689|
|         316|  2.1114e-01|   -2.047617|    3.360900|    0.010421|           4|   -7.274487|           2|   -6.561079|           4|   -7.193359|    0.113753|    0.166681|
|         317|  2.3225e-01|   -2.047625|    3.360861|   -0.004622|           4|   -7.119603|           2|   -6.471231|           4|   -7.170675|    0.113751|    0.166673|
|         318|  2.5548e-01|   -2.047633|    3.360818|   -0.021544|           4|   -6.965663|           2|   -6.381071|           4|   -7.152800|    0.113749|    0.166663|
|         319|  2.8102e-01|   -2.047644|    3.360767|   -0.038666|           4|   -6.812730|           2|   -6.290434|           4|   -7.129333|    0.113747|    0.166653|
|         320|  3.0913e-01|   -2.047662|    3.360704|   -0.061933|           4|   -6.660868|           2|   -6.199827|           4|   -7.113096|    0.113744|    0.166641|
|         321|  3.4004e-01|   -2.047693|    3.360619|   -0.082715|           4|   -6.510144|           2|   -6.113264|           4|   -7.086926|    0.113741|    0.166629|
|         322|  3.7404e-01|   -2.047743|    3.360504|   -0.100967|           4|   -6.360624|           2|   -6.023382|           4|   -7.066745|    0.113738|    0.166616|
|         323|  4.1145e-01|   -2.047785|    3.360397|   -0.112188|           4|   -6.212421|           3|   -7.425769|           4|   -7.042950|    0.113735|    0.166601|
|         324|  4.5259e-01|   -2.047821|    3.360293|   -0.092054|           4|   -6.065603|           3|   -7.297845|           4|   -7.027047|    0.113731|    0.166585|
|         325|  4.9785e-01|   -2.047853|    3.360192|   -0.060898|           5|   -6.832290|           3|   -7.165905|           4|   -7.007090|    0.113727|    0.166567|
|         326|  5.4764e-01|   -2.047875|    3.360099|   -0.053341|           5|   -6.653936|           3|   -7.046797|           4|   -7.011548|    0.113723|    0.166548|
|         327|  6.0240e-01|   -2.047909|    3.359981|    0.011325|           5|   -6.478015|           3|   -6.897770|           4|   -6.994857|    0.113718|    0.166527|
|         328|  6.6264e-01|   -2.047957|    3.359837|    0.084534|           5|   -6.304679|           3|   -6.811091|           4|   -7.015529|    0.113713|    0.166505|
|         329|  7.2890e-01|   -2.048016|    3.359671|    0.135182|           5|   -6.134082|           3|   -6.704364|           4|   -7.048630|    0.113707|    0.166480|
|         330|  8.0180e-01|   -2.048081|    3.359492|    0.169398|           6|   -7.575552|           3|   -6.612912|           4|   -7.092827|    0.113701|    0.166454|
|         331|  8.8197e-01|   -2.048126|    3.359331|    0.213221|           6|   -7.371146|           3|   -6.535230|           4|   -7.097834|    0.113694|    0.166425|
|         332|  9.7017e-01|   -2.048151|    3.359187|    0.240559|           6|   -7.169126|           3|   -6.448238|           4|   -7.124035|    0.113686|    0.166394|
|         333|  1.0672e+00|   -2.048188|    3.359013|    0.309009|           6|   -6.969858|           3|   -6.366754|           4|   -7.146116|    0.113678|    0.166361|
|         334|  1.1739e+00|   -2.048213|    3.358844|    0.322024|           6|   -6.775115|           3|   -6.277143|           4|   -7.232788|    0.113669|    0.166325|
|         335|  1.2913e+00|   -2.048205|    3.358706|    0.355695|           6|   -6.583652|           3|   -6.175024|           4|   -7.256505|    0.113660|    0.166287|
|         336|  1.4204e+00|   -2.048169|    3.358588|    0.395205|           6|   -6.395199|           3|   -6.086687|           4|   -7.283299|    0.113650|    0.166247|
|         337|  1.5625e+00|   -2.048098|    3.358504|    0.420764|           6|   -6.209995|           4|   -6.963532|           4|   -7.312959|    0.113639|    0.166204|
|         338|  1.7187e+00|   -2.047962|    3.358485|    0.412679|           6|   -6.026952|           4|   -6.831165|           4|   -7.331273|    0.113627|    0.166159|
|         339|  1.8906e+00|   -2.047819|    3.358455|    0.414707|           7|   -6.729443|           4|   -6.710640|           4|   -7.305532|    0.113614|    0.166112|
|         340|  2.0797e+00|   -2.047669|    3.358420|    0.436771|           7|   -6.523186|           4|   -6.591572|           4|   -7.305803|    0.113600|    0.166063|
|         341|  2.2876e+00|   -2.047480|    3.358438|    0.455296|           7|   -6.318196|           4|   -6.475178|           4|   -7.322564|    0.113585|    0.166013|
|         342|  2.5164e+00|   -2.047181|    3.358615|    0.482801|           7|   -6.114504|           4|   -6.367805|           4|   -7.317442|    0.113568|    0.165961|
|         343|  2.7680e+00|   -2.046931|    3.358717|    0.489788|           8|   -6.753031|           4|   -6.253820|           4|   -7.324644|    0.113550|    0.165909|
|         344|  3.0448e+00|   -2.046521|    3.359023|    0.503817|           8|   -6.511479|           4|   -6.141396|           4|   -7.295445|    0.113531|    0.165858|
|         345|  3.3493e+00|   -2.046104|    3.359288|    0.529837|           8|   -6.264901|           4|   -6.025299|           4|   -7.289615|    0.113510|    0.165808|
|         346|  3.6842e+00|   -2.045647|    3.359567|    0.520219|           8|   -6.010946|           5|   -6.439704|           4|   -7.296437|    0.113487|    0.165761|
|         347|  4.0527e+00|   -2.045024|    3.360031|    0.537322|           9|   -6.519505|           5|   -6.308544|           4|   -7.266358|    0.113461|    0.165719|
|         348|  4.4579e+00|   -2.044480|    3.360308|    0.543951|           9|   -6.269015|           5|   -6.179919|           4|   -7.261543|    0.113433|    0.165685|
|         349|  4.9037e+00|   -2.043847|    3.360646|    0.564876|           9|   -6.032520|           5|   -6.059099|           4|   -7.231615|    0.113401|    0.165660|
|         350|  5.3941e+00|   -2.043357|    3.360707|    0.568504|          10|   -6.583529|           6|   -7.778529|           4|   -7.227582|    0.113364|    0.165649|
|         351|  5.9335e+00|   -2.042608|    3.361015|    0.578800|          10|   -6.341289|           6|   -7.593320|           4|   -7.233737|    0.113323|    0.165659|
|         352|  6.5268e+00|   -2.041752|    3.361346|    0.589668|          10|   -6.091624|           6|   -7.412059|           4|   -7.273467|    0.113277|    0.165698|
|         353|  3.2634e+00|   -2.040968|    3.361553|    0.608813|          10|   -5.843776|           6|   -7.225230|           4|   -7.292958|    0.113224|    0.165775|
|         354|  3.5898e+00|   -2.040126|    3.361866|    0.603694|           9|   -7.042776|           4|   -6.056886|           3|   -6.103143|    0.113197|    0.165817|
|         355|  3.9487e+00|   -2.039945|    3.361547|    0.510456|           9|   -6.796482|           5|   -6.415312|           4|   -7.402817|    0.113166|    0.165874|
|         356|  4.3436e+00|   -2.039721|    3.361265|    0.546240|           9|   -6.553006|           5|   -6.292462|           4|   -7.345733|    0.113132|    0.165947|
|         357|  4.7780e+00|   -2.039560|    3.360910|    0.582410|           9|   -6.309900|           5|   -6.156922|           4|   -7.392369|    0.113093|    0.166041|
|         358|  5.2558e+00|   -2.039553|    3.360352|    0.562302|           9|   -6.072501|           5|   -6.043674|           4|   -7.419210|    0.113051|    0.166161|
|         359|  5.7813e+00|   -2.039417|    3.360033|    0.564700|          10|   -6.516398|           6|   -7.708014|           4|   -7.393725|    0.113003|    0.166312|
|         360|  6.3595e+00|   -2.039174|    3.359782|    0.591026|          10|   -6.264890|           6|   -7.525266|           4|   -7.380979|    0.112950|    0.166503|
|         361|  6.9954e+00|   -2.038918|    3.359510|    0.595515|          10|   -6.008823|           6|   -7.340438|           4|   -7.391619|    0.112890|    0.166740|
|         362|  3.4977e+00|   -2.038599|    3.359291|    0.608553|          10|   -5.763316|           6|   -7.157165|           4|   -7.378759|    0.112822|    0.167034|
|         363|  3.8475e+00|   -2.038480|    3.358802|    0.612112|           9|   -6.996056|           4|   -6.047474|           3|   -6.149721|    0.112786|    0.167180|
|         364|  4.2322e+00|   -2.038392|    3.358472|    0.502227|           9|   -6.740183|           5|   -6.409500|           4|   -7.474041|    0.112746|    0.167350|
|         365|  4.6555e+00|   -2.038427|    3.357962|    0.549347|           9|   -6.484030|           5|   -6.291051|           4|   -7.377196|    0.112701|    0.167548|
|         366|  5.1210e+00|   -2.038599|    3.357275|    0.579800|           9|   -6.225693|           5|   -6.163070|           4|   -7.431753|    0.112651|    0.167779|
|         367|  5.6331e+00|   -2.038806|    3.356591|    0.585636|          10|   -6.708139|           5|   -6.055684|           4|   -7.428951|    0.112595|    0.168050|
|         368|  6.1964e+00|   -2.038831|    3.356137|    0.593698|          10|   -6.441824|           6|   -7.650145|           4|   -7.415239|    0.112531|    0.168366|
[...]
|       12811|  3.4678e+00|   -2.229006|    3.220966|    0.649212|           8|   -6.364606|           4|   -6.745183|           3|   -7.293018|    0.028391|    0.572747|
|       12812|  1.7339e+00|   -2.271164|    3.144354|    0.592458|           7|   -6.737608|           4|   -7.912894|           3|   -7.367466|    0.028391|    0.572743|
|       12813|  8.6695e-01|   -2.326832|    3.070316|    0.531853|           5|   -6.238576|           3|   -6.978511|           3|   -7.331154|    0.028391|    0.572741|
|       12814|  4.3347e-01|   -2.364105|    3.022672|    0.471547|           4|   -6.095448|           3|   -8.124883|           3|   -7.218251|    0.028391|    0.572740|
|       12815|  2.1674e-01|   -2.391924|    2.984076|    0.386143|           4|   -7.276425|           3|   -9.322450|           3|   -7.005475|    0.028391|    0.572739|
|       12816|  1.0837e-01|   -2.405007|    2.964293|    0.337836|           3|   -6.371415|           2|   -6.723765|           3|   -6.722858|    0.028391|    0.572739|
|       12817|  5.4184e-02|   -2.411928|    2.953710|    0.296272|           3|   -7.211396|           2|   -7.573990|           3|   -6.467120|    0.028391|    0.572739|
|       12818|  2.7092e-02|   -2.416190|    2.947391|    0.268683|           3|   -8.077086|           2|   -8.431283|           3|   -6.288646|    0.028391|    0.572739|
|       12819|  1.3546e-02|   -2.418224|    2.944374|    0.253074|           2|   -6.307890|           2|   -9.322503|           3|   -6.289090|    0.028391|    0.572739|
|       12820|  1.0000e-02|   -2.419226|    2.942890|    0.245323|           2|   -6.906568|           2|  -10.175923|           3|   -6.424080|    0.028391|    0.572739|
|       12821|  1.0000e-02|   -2.419724|    2.942157|    0.241738|           2|   -7.168981|           2|  -10.533884|           3|   -6.508280|    0.028391|    0.572739|
|       12822|  1.0000e-02|   -2.420111|    2.941591|    0.239203|           2|   -7.168504|           2|  -10.533433|           3|   -6.518224|    0.028391|    0.572739|
|       12823|  1.0000e-02|   -2.420526|    2.940991|    0.236725|           2|   -7.167991|           2|  -10.529477|           3|   -6.520288|    0.028391|    0.572739|
|       12824|  1.0000e-02|   -2.420935|    2.940399|    0.234281|           2|   -7.167485|           2|  -10.529074|           3|   -6.521950|    0.028391|    0.572739|
|       12825|  1.0000e-02|   -2.421340|    2.939819|    0.231901|           2|   -7.166989|           2|  -10.528992|           3|   -6.532018|    0.028391|    0.572739|
|       12826|  1.0000e-02|   -2.421739|    2.939247|    0.229464|           2|   -7.166501|           2|  -10.528476|           3|   -6.536084|    0.028391|    0.572739|
|       12827|  1.0000e-02|   -2.422132|    2.938683|    0.227071|           2|   -7.166021|           2|  -10.527551|           3|   -6.540523|    0.028391|    0.572739|
|       12828|  1.0000e-02|   -2.422520|    2.938127|    0.224772|           2|   -7.165548|           2|  -10.525833|           3|   -6.541198|    0.028391|    0.572739|
|       12829|  1.0000e-02|   -2.422903|    2.937579|    0.222402|           2|   -7.165082|           2|  -10.526626|           3|   -6.540481|    0.028391|    0.572739|
|       12830|  1.0000e-02|   -2.423281|    2.937039|    0.220085|           2|   -7.164623|           2|  -10.525511|           3|   -6.538637|    0.028391|    0.572739|
|       12831|  1.0000e-02|   -2.423654|    2.936508|    0.217893|           2|   -7.164171|           2|  -10.525496|           3|   -6.541866|    0.028391|    0.572739|
|       12832|  1.0000e-02|   -2.424015|    2.935991|    0.215797|           2|   -7.163733|           2|  -10.525059|           3|   -6.545291|    0.028391|    0.572739|
|       12833|  1.0000e-02|   -2.424370|    2.935490|    0.213782|           2|   -7.163309|           2|  -10.524142|           3|   -6.540997|    0.028391|    0.572739|
|       12834|  1.0000e-02|   -2.424726|    2.934989|    0.211903|           2|   -7.162885|           2|  -10.530415|           3|   -6.536066|    0.028391|    0.572739|
|       12835|  1.0000e-02|   -2.425079|    2.934494|    0.210076|           2|   -7.162466|           2|  -10.523684|           3|   -6.543217|    0.028391|    0.572739|
|       12836|  1.0000e-02|   -2.425426|    2.934007|    0.208275|           2|   -7.162036|           2|  -10.522671|           3|   -6.552058|    0.028391|    0.572739|
|       12837|  1.0000e-02|   -2.425768|    2.933528|    0.206498|           2|   -7.161607|           2|  -10.524985|           3|   -6.548600|    0.028391|    0.572739|
|       12838|  1.0000e-02|   -2.426105|    2.933056|    0.204737|           2|   -7.161185|           2|  -10.521537|           3|   -6.550789|    0.028391|    0.572739|
|       12839|  1.0000e-02|   -2.426437|    2.932592|    0.202990|           2|   -7.160770|           2|  -10.518472|           3|   -6.553707|    0.028391|    0.572739|
|       12840|  1.0000e-02|   -2.426763|    2.932137|    0.201249|           2|   -7.160362|           2|  -10.517816|           3|   -6.561520|    0.028391|    0.572739|
|       12841|  1.0000e-02|   -2.427085|    2.931688|    0.199515|           2|   -7.159961|           2|  -10.517125|           3|   -6.558424|    0.028391|    0.572739|
|       12842|  1.0000e-02|   -2.427402|    2.931247|    0.197787|           2|   -7.159565|           2|  -10.516463|           3|   -6.552827|    0.028391|    0.572739|
|       12843|  1.0000e-02|   -2.427714|    2.930814|    0.196063|           2|   -7.159176|           2|  -10.515750|           3|   -6.552522|    0.028391|    0.572739|
|       12844|  1.0000e-02|   -2.428021|    2.930388|    0.194342|           2|   -7.158793|           2|  -10.515111|           3|   -6.558364|    0.028391|    0.572739|
|       12845|  1.0000e-02|   -2.428323|    2.929969|    0.192627|           2|   -7.158416|           2|  -10.514400|           3|   -6.559559|    0.028391|    0.572739|
|       12846|  1.0000e-02|   -2.428620|    2.929557|    0.190917|           2|   -7.158046|           2|  -10.513767|           3|   -6.556883|    0.028391|    0.572739|
|       12847|  1.0000e-02|   -2.428913|    2.929152|    0.189208|           2|   -7.157681|           2|  -10.513072|           3|   -6.563193|    0.028391|    0.572739|
|       12848|  1.0000e-02|   -2.429201|    2.928754|    0.187550|           2|   -7.157324|           2|  -10.512431|           3|   -6.568688|    0.028391|    0.572739|
|       12849|  1.0000e-02|   -2.429484|    2.928363|    0.185946|           2|   -7.156972|           2|  -10.511746|           3|   -6.565045|    0.028391|    0.572739|
|       12850|  1.0000e-02|   -2.429763|    2.927978|    0.184378|           2|   -7.156627|           2|  -10.511082|           3|   -6.561646|    0.028391|    0.572739|
|       12851|  1.0000e-02|   -2.430039|    2.927599|    0.182823|           2|   -7.156287|           2|  -10.510393|           3|   -6.565348|    0.028391|    0.572739|
|       12852|  1.0000e-02|   -2.430311|    2.927227|    0.181279|           2|   -7.155952|           2|  -10.509704|           3|   -6.574315|    0.028391|    0.572738|
|       12853|  1.1000e-02|   -2.430577|    2.926860|    0.179742|           2|   -7.155621|           2|  -10.509015|           3|   -6.572102|    0.028391|    0.572738|
|       12854|  1.2100e-02|   -2.430840|    2.926501|    0.178202|           2|   -7.072664|           2|  -10.401881|           3|   -6.537796|    0.028391|    0.572738|
|       12855|  1.3310e-02|   -2.431123|    2.926114|    0.176515|           2|   -6.989694|           2|  -10.293054|           3|   -6.514428|    0.028391|    0.572738|
|       12856|  1.4641e-02|   -2.431428|    2.925699|    0.174662|           2|   -6.906712|           2|  -10.182638|           3|   -6.492656|    0.028391|    0.572738|
|       12857|  1.6105e-02|   -2.431755|    2.925255|    0.172651|           2|   -6.823717|           2|  -10.070751|           3|   -6.462558|    0.028391|    0.572738|
|       12858|  1.7716e-02|   -2.432106|    2.924781|    0.170480|           2|   -6.740710|           2|   -9.957529|           3|   -6.429679|    0.028391|    0.572738|
|       12859|  1.9487e-02|   -2.432479|    2.924278|    0.168075|           2|   -6.657692|           2|   -9.843098|           3|   -6.411283|    0.028391|    0.572738|
|       12860|  2.1436e-02|   -2.432877|    2.923747|    0.165446|           2|   -6.574663|           2|   -9.727566|           3|   -6.395609|    0.028391|    0.572738|
|       12861|  2.3579e-02|   -2.433302|    2.923186|    0.162625|           2|   -6.491623|           2|   -9.610982|           3|   -6.374255|    0.028391|    0.572738|
|       12862|  2.5937e-02|   -2.433775|    2.922572|    0.159610|           2|   -6.408566|           2|   -9.493642|           3|   -6.349161|    0.028391|    0.572738|
|       12863|  2.8531e-02|   -2.434309|    2.921887|    0.156396|           2|   -6.325490|           2|   -9.375650|           3|   -6.330010|    0.028391|    0.572738|
|       12864|  3.1384e-02|   -2.434866|    2.921179|    0.152992|           2|   -6.242406|           2|   -9.257111|           3|   -6.319218|    0.028391|    0.572738|
|       12865|  3.4523e-02|   -2.435450|    2.920440|    0.148753|           2|   -6.159306|           2|   -9.138138|           3|   -6.305646|    0.028391|    0.572738|
|       12866|  3.7975e-02|   -2.436051|    2.919677|    0.144394|           2|   -6.076193|           2|   -9.018819|           3|   -6.285257|    0.028391|    0.572738|
|       12867|  4.1772e-02|   -2.436663|    2.918915|    0.139807|           3|   -8.426652|           2|   -8.899231|           3|   -6.275886|    0.028391|    0.572738|
|       12868|  4.5950e-02|   -2.437280|    2.918167|    0.134759|           3|   -8.298559|           2|   -8.779446|           3|   -6.272834|    0.028391|    0.572738|
|       12869|  5.0545e-02|   -2.437892|    2.917443|    0.129221|           3|   -8.170125|           2|   -8.659521|           3|   -6.264561|    0.028391|    0.572738|
|       12870|  5.5599e-02|   -2.438490|    2.916757|    0.123300|           3|   -8.041342|           2|   -8.539496|           3|   -6.254749|    0.028391|    0.572738|
|       12871|  6.1159e-02|   -2.439063|    2.916133|    0.117219|           3|   -7.912227|           2|   -8.425432|           3|   -6.252476|    0.028391|    0.572738|
|       12872|  6.7275e-02|   -2.439612|    2.915573|    0.110826|           3|   -7.782815|           2|   -8.304969|           3|   -6.259601|    0.028391|    0.572738|
|       12873|  7.4002e-02|   -2.440089|    2.915139|    0.103455|           3|   -7.653176|           2|   -8.184496|           3|   -6.260919|    0.028391|    0.572738|
|       12874|  8.1403e-02|   -2.440475|    2.914862|    0.095313|           3|   -7.523265|           2|   -8.059800|           3|   -6.259627|    0.028391|    0.572738|
|       12875|  8.9543e-02|   -2.440853|    2.914575|    0.087791|           3|   -7.393827|           2|   -7.939584|           3|   -6.265080|    0.028391|    0.572737|
|       12876|  9.8497e-02|   -2.441220|    2.914330|    0.079377|           3|   -7.264637|           2|   -7.819406|           3|   -6.275909|    0.028391|    0.572737|
|       12877|  1.0835e-01|   -2.441731|    2.913918|    0.070539|           3|   -7.132706|           2|   -7.699185|           3|   -6.286053|    0.028391|    0.572737|
|       12878|  1.1918e-01|   -2.442258|    2.913493|    0.061167|           3|   -7.001174|           2|   -7.578339|           3|   -6.291705|    0.028391|    0.572737|
|       12879|  1.3110e-01|   -2.443579|    2.911981|    0.053567|           3|   -6.870157|           2|   -7.458306|           3|   -6.300496|    0.028391|    0.572737|
|       12880|  1.4421e-01|   -2.444568|    2.911008|    0.043782|           3|   -6.741806|           2|   -7.343051|           3|   -6.308846|    0.028391|    0.572737|
|       12881|  1.5863e-01|   -2.445496|    2.910165|    0.032957|           3|   -6.616189|           2|   -7.222497|           3|   -6.319341|    0.028391|    0.572736|
|       12882|  1.7449e-01|   -2.445837|    2.910158|    0.019610|           3|   -6.492946|           2|   -7.105890|           3|   -6.340851|    0.028391|    0.572736|
|       12883|  1.9194e-01|   -2.445502|    2.911081|    0.007084|           3|   -6.372846|           2|   -6.984886|           3|   -6.354300|    0.028391|    0.572736|
|       12884|  2.1114e-01|   -2.444417|    2.913019|   -0.006795|           3|   -6.257345|           2|   -6.870021|           3|   -6.369572|    0.028391|    0.572736|
|       12885|  2.3225e-01|   -2.442565|    2.915934|   -0.023377|           3|   -6.146586|           2|   -6.757846|           3|   -6.384252|    0.028391|    0.572735|
|       12886|  2.5548e-01|   -2.441074|    2.918272|   -0.037142|           3|   -6.041688|           2|   -6.647213|           3|   -6.398003|    0.028391|    0.572735|
|       12887|  2.8102e-01|   -2.439358|    2.920858|   -0.043989|           4|   -8.097537|           2|   -6.530705|           3|   -6.413638|    0.028391|    0.572735|
|       12888|  3.0913e-01|   -2.436546|    2.924818|   -0.057169|           4|   -7.943806|           2|   -6.415380|           3|   -6.431772|    0.028391|    0.572734|
|       12889|  3.4004e-01|   -2.432899|    2.929851|   -0.061801|           4|   -7.791057|           2|   -6.299114|           3|   -6.448190|    0.028391|    0.572734|
|       12890|  3.7404e-01|   -2.428299|    2.936022|   -0.077795|           4|   -7.638767|           2|   -6.251004|           3|   -6.467710|    0.028391|    0.572733|
|       12891|  4.1145e-01|   -2.423901|    2.941912|   -0.079240|           4|   -7.485174|           2|   -6.121911|           3|   -6.485549|    0.028390|    0.572733|
|       12892|  4.5259e-01|   -2.419767|    2.947072|   -0.086272|           4|   -7.329207|           2|   -6.011002|           3|   -6.509726|    0.028390|    0.572732|
|       12893|  4.9785e-01|   -2.415981|    2.951416|   -0.084100|           4|   -7.171026|           2|   -6.001191|           3|   -6.528116|    0.028390|    0.572731|
|       12894|  5.4764e-01|   -2.412317|    2.955402|   -0.014067|           4|   -7.011729|           3|   -8.853012|           3|   -6.554360|    0.028390|    0.572731|
|       12895|  6.0240e-01|   -2.408662|    2.959078|    0.068091|           4|   -6.851346|           3|   -8.836841|           3|   -6.593791|    0.028390|    0.572730|
|       12896|  6.6264e-01|   -2.404791|    2.962495|    0.120694|           4|   -6.699996|           3|   -8.776712|           3|   -6.644677|    0.028390|    0.572729|
|       12897|  7.2890e-01|   -2.402605|    2.963171|    0.186040|           4|   -6.546961|           3|   -8.698451|           3|   -6.689509|    0.028390|    0.572728|
|       12898|  8.0180e-01|   -2.400954|    2.962974|    0.242437|           4|   -6.387464|           3|   -8.592552|           3|   -6.754772|    0.028390|    0.572727|
|       12899|  8.8197e-01|   -2.400159|    2.961102|    0.229501|           4|   -6.228047|           3|   -8.444032|           3|   -6.810776|    0.028390|    0.572726|
|       12900|  9.7017e-01|   -2.401490|    2.955717|    0.259747|           4|   -6.073860|           3|   -8.001017|           3|   -6.823169|    0.028390|    0.572724|
+-----------------------------------------------------------------------+
|        File Writing Summary       |              Filename             |
+-----------------------------------------------------------------------+
|SU2 binary restart                 |restart_flow.dat                   |
|Tecplot ASCII                      |volume_flow.dat                    |
|CSV file                           |surface_flow.csv                   |
+-----------------------------------------------------------------------+
+------------------------------------------------------------------------------------------------------------------------------------------------------------------------+
|  Inner_Iter|     Avg CFL|    rms[Rho]|   rms[RhoE]|      rms[k]|Linear_Solve|   LinSolRes|LinSolIterTu|LinSolResTur|LinSolIterTr|LinSolResTra|          CD|          CL|
+------------------------------------------------------------------------------------------------------------------------------------------------------------------------+
|       12901|  1.0672e+00|   -2.405513|    2.946669|    0.263819|           5|   -7.093180|           3|   -7.786613|           3|   -6.871120|    0.028390|    0.572723|
|       12902|  1.1739e+00|   -2.408902|    2.940313|    0.334883|           5|   -6.904755|           3|   -7.660525|           3|   -6.903489|    0.028390|    0.572721|
|       12903|  1.2913e+00|   -2.410289|    2.938897|    0.345042|           5|   -6.726661|           3|   -7.469774|           3|   -6.976298|    0.028390|    0.572720|
|       12904|  1.4204e+00|   -2.413138|    2.937181|    0.402015|           5|   -6.552374|           3|   -7.389645|           3|   -7.005906|    0.028390|    0.572718|
|       12905|  1.5625e+00|   -2.418112|    2.933673|    0.403977|           5|   -6.390027|           3|   -7.258715|           3|   -7.080989|    0.028390|    0.572716|
|       12906|  1.7187e+00|   -2.424233|    2.930518|    0.402527|           5|   -6.241270|           3|   -7.178765|           3|   -7.098824|    0.028389|    0.572714|
|       12907|  1.8906e+00|   -2.426780|    2.934076|    0.430443|           5|   -6.105398|           3|   -6.799674|           3|   -7.131263|    0.028389|    0.572711|
|       12908|  2.0797e+00|   -2.428582|    2.938789|    0.445161|           6|   -6.803712|           3|   -6.736941|           3|   -7.172448|    0.028389|    0.572709|
|       12909|  2.2876e+00|   -2.420507|    2.956643|    0.452568|           6|   -6.619180|           3|   -6.651246|           3|   -7.197394|    0.028389|    0.572706|
|       12910|  2.5164e+00|   -2.405610|    2.980015|    0.483093|           6|   -6.440450|           3|   -6.618709|           3|   -7.212144|    0.028389|    0.572703|

----------------------------- Solver Exit -------------------------------
All convergence criteria satisfied.
+-----------------------------------------------------------------------+
|      Convergence Field     |     Value    |   Criterion  |  Converged |
+-----------------------------------------------------------------------+
|                  Cauchy[CL]|   8.86893e-07|       < 1e-06|         Yes|
|                  Cauchy[CD]|   2.52299e-07|       < 1e-06|         Yes|
+-----------------------------------------------------------------------+
-------------------------------------------------------------------------
+-----------------------------------------------------------------------+
|        File Writing Summary       |              Filename             |
+-----------------------------------------------------------------------+
|SU2 binary restart                 |restart_flow.dat                   |
|Tecplot ASCII                      |volume_flow.dat                    |
|CSV file                           |surface_flow.csv                   |
+-----------------------------------------------------------------------+

------------------------- Solver Postprocessing -------------------------
Deleted CNumerics container.
Deleted CIntegration container.
Deleted CSolver container.
Deleted CIteration container.
Deleted CInterface container.
Deleted CGeometry container.
Deleted CFreeFormDefBox class.
Deleted CSurfaceMovement class.
Deleted CVolumetricMovement class.
Deleted CConfig container.
Deleted nInst container.
Deleted COutput class.
-------------------------------------------------------------------------

------------------------- Exit Success (SU2_CFD) ------------------------

