
-------------------------------------------------------------------------
|    ___ _   _ ___                                                      |
|   / __| | | |_  )   Release 7.5.0 "Blackbird"                         |
|   \__ \ |_| |/ /                                                      |
|   |___/\___//___|   Suite (Mesh Deformation Code)                     |
|                                                                       |
-------------------------------------------------------------------------
| SU2 Project Website: https://su2code.github.io                        |
|                                                                       |
| The SU2 Project is maintained by the SU2 Foundation                   |
| (http://su2foundation.org)                                            |
-------------------------------------------------------------------------
| Copyright 2012-2022, SU2 Contributors                                 |
|                                                                       |
| SU2 is free software; you can redistribute it and/or                  |
| modify it under the terms of the GNU Lesser General Public            |
| License as published by the Free Software Foundation; either          |
| version 2.1 of the License, or (at your option) any later version.    |
|                                                                       |
| SU2 is distributed in the hope that it will be useful,                |
| but WITHOUT ANY WARRANTY; without even the implied warranty of        |
| MERCHANTABILITY or FITNESS FOR A PARTICULAR PURPOSE. See the GNU      |
| Lesser General Public License for more details.                       |
|                                                                       |
| You should have received a copy of the GNU Lesser General Public      |
| License along with SU2. If not, see <http://www.gnu.org/licenses/>.   |
-------------------------------------------------------------------------

----------------- Physical Case Definition ( Zone 0 ) -------------------
Input mesh file name: NACA0012.cgns

---------------- Grid deformation parameters ( Zone 0 )  ----------------
Grid deformation using a linear elasticity method.


-------------------- Output Information ( Zone 0 ) ----------------------
Output mesh file name: airfoil_deform.su2. 
Cell stiffness scaled by distance to nearest solid surface.

------------- Config File Boundary Information ( Zone 0 ) ---------------
+-----------------------------------------------------------------------+
|                        Marker Type|                        Marker Name|
+-----------------------------------------------------------------------+
|                         Euler wall|                         AIRFOIL_UP|
|                                   |                        AIRFOIL_LOW|
+-----------------------------------------------------------------------+
|                          Far-field|                           FARFIELD|
+-----------------------------------------------------------------------+
|           Deformable mesh boundary|                         AIRFOIL_UP|
|                                   |                        AIRFOIL_LOW|
+-----------------------------------------------------------------------+
Reading the CGNS file: NACA0012.cgns.
WARNING: The CGNS file version (3.31)  is old and may cause high memory usage issues, consider updating the file with the cgnsupdate tool.
CGNS file contains 1 database(s).
Database 1, BASE#1:  cell dimension of 2, physical dimension of 3.
1 total zone(s).
Zone 1, NACA0012: 72650 total vertices, 72000 total elements.
Loading CoordinateX values into linear partitions.
Loading CoordinateY values into linear partitions.
Distributing connectivity across all ranks.
Number of connectivity sections is 4.
Section FLUENT contains 72000 elements of type Quadrilateral.
Section AIRFOIL_UP contains 230 elements of type Line.
Section AIRFOIL_LOW contains 230 elements of type Line.
Section FARFIELD contains 840 elements of type Line.
Loading volume section FLUENT from file.
Loading surface section AIRFOIL_UP from file.
Loading surface section AIRFOIL_LOW from file.
Loading surface section FARFIELD from file.
Two dimensional problem.
72650 grid points before partitioning.
72000 volume elements before partitioning.
3 surface markers.
230 boundary elements in index 0 (Marker = AIRFOIL_UP).
230 boundary elements in index 1 (Marker = AIRFOIL_LOW).
840 boundary elements in index 2 (Marker = FARFIELD).
Executing the partitioning functions.
Building the graph adjacency structure.
Calling ParMETIS... graph partitioning complete (6741 edge cuts).
Distributing ParMETIS coloring.
Rebalancing vertices.
Rebalancing volume element connectivity.
Rebalancing markers and surface elements.
86460 vertices including ghost points. 
78816 interior elements including halo cells. 
78816 quadrilaterals.
Establishing MPI communication patterns.

----------------------- Preprocessing computations ----------------------
Setting local point connectivity.
Checking the numerical grid orientation of the interior elements.
All volume elements are correctly orientend.
There has been a re-orientation of 677 LINE surface elements.
Identify edges and vertices.
Setting the bound control volume structure.
Area of the computational grid: 84.2439.
  Info: Ignoring the following volume output fields/groups:
  SOLUTION
Volume output fields: COORDINATES
  Info: Ignoring the following screen output fields:
  RMS_DENSITY, RMS_ENERGY, LIFT, DRAG
Screen output fields: INNER_ITER
History output group(s): 
Warning: No (valid) fields chosen for convergence monitoring. Convergence monitoring inactive.
Warning: No (valid) fields chosen for time convergence monitoring. Time convergence monitoring inactive.

--------------------- Surface grid deformation (ZONE 0) -----------------
Performing the deformation of the surface grid.
Updating the surface coordinates from the input file.

------------------- Volumetric grid deformation (ZONE 0) ----------------
Performing the deformation of the volumetric grid.
Computing volumes of the grid elements.
Min. volume: 7.10269e-10, max. volume: 0.0236362.
Min. distance: 1.73545e-06, max. distance: 6.40312.

# FGMRES residual history
# Residual tolerance target = 1e-14
# Initial residual norm     = 3.71924e+08
     0     1
     10     4.73974e-05
     20     5.90917e-07
     30     5.28112e-08
     40     4.8927e-09
     50     2.73998e-10
     60     4.22118e-11
     70     1.99548e-11
     80     7.66397e-12
     90     3.44221e-12
     100     1.98834e-12
     110     1.35533e-12
     120     9.81382e-13
     130     8.09545e-13
     140     7.26672e-13
     150     6.1129e-13
     160     4.02075e-13
     170     2.25497e-13
     180     1.52027e-13
     190     1.07294e-13
     200     7.49998e-14
     210     5.89957e-14
     220     4.30279e-14
     230     3.08999e-14
     240     2.075e-14
     250     1.45766e-14
     260     1.06037e-14
# FGMRES final (true) residual:
# Iteration = 263: |res|/|res0| = 9.91472e-15.

Computing volumes of the grid elements.
Non-linear iter.: 1/1. Linear iter.: 263. Min. area: 3.63808e-10. Error: 9.91472e-15.

----------------------- Write deformed grid files -----------------------
|SU2 mesh                           |airfoil_deform.su2                 |
|CSV file                           |surface_deformed.csv               |
Adding any FFD information to the SU2 file.

------------------------- Solver Postprocessing -------------------------
Deleted CGeometry container.
Deleted CSurfaceMovement class.
Deleted CVolumetricMovement class.
Deleted CConfig container.
Deleted COutput class.

Completed in 0.642618 seconds on 128 cores.

------------------------- Exit Success (SU2_DEF) ------------------------

